data_cif

_audit_creation_method             'generated by GULP'

_symmetry_space_group_name_H-M     'P 1'
_symmetry_Int_Tables_number        1
_symmetry_cell_setting             triclinic

_cell_length_a                       11.9021
_cell_length_b                       11.9021
_cell_length_c                       29.6920
_cell_angle_alpha                   90.0000
_cell_angle_beta                    90.0000
_cell_angle_gamma                  120.0000

loop_
_atom_site_label
_atom_site_fract_x
_atom_site_fract_y
_atom_site_fract_z
_atom_site_occupancy
  Si          0.69960      0.37570      0.03389  1.0000
  Si          0.62430      0.32390      0.36722  1.0000
  Si          0.67610      0.30040      0.70056  1.0000
  Si          0.30040      0.62430      0.53389  1.0000
  Si          0.37570      0.67610      0.86722  1.0000
  Si          0.32390      0.69960      0.20056  1.0000
  Si          0.37570      0.69960      0.29944  1.0000
  Si          0.32390      0.62430      0.96611  1.0000
  Si          0.30040      0.67610      0.63278  1.0000
  Si          0.62430      0.30040      0.79944  1.0000
  Si          0.67610      0.37570      0.46611  1.0000
  Si          0.69960      0.32390      0.13278  1.0000
  Si          0.53030      0.41340      0.96687  1.0000
  Si          0.58660      0.11690      0.30020  1.0000
  Si          0.88310      0.46970      0.63354  1.0000
  Si          0.46970      0.58660      0.46687  1.0000
  Si          0.41340      0.88310      0.80020  1.0000
  Ge          0.11690      0.53030      0.13354  1.0000
  Si          0.41340      0.53030      0.36646  1.0000
  Si          0.11690      0.58660      0.03313  1.0000
  Si          0.46970      0.88310      0.69980  1.0000
  Si          0.58660      0.46970      0.86646  1.0000
  Si          0.88310      0.41340      0.53313  1.0000
  Si          0.53030      0.11690      0.19980  1.0000
  Si          0.29880      0.39430      0.85119  1.0000
  Si          0.60570      0.90450      0.18452  1.0000
  Si          0.09550      0.70120      0.51786  1.0000
  Si          0.70120      0.60570      0.35119  1.0000
  Si          0.39430      0.09550      0.68452  1.0000
  Si          0.90450      0.29880      0.01786  1.0000
  Si          0.39430      0.29880      0.48214  1.0000
  Si          0.90450      0.60570      0.14881  1.0000
  Si          0.70120      0.09550      0.81548  1.0000
  Si          0.60570      0.70120      0.98214  1.0000
  Si          0.09550      0.39430      0.64881  1.0000
  Si          0.29880      0.90450      0.31548  1.0000
  Si          0.24850      0.33490      0.95210  1.0000
  Si          0.66510      0.91360      0.28543  1.0000
  Si          0.08640      0.75150      0.61877  1.0000
  Ge          0.75150      0.66510      0.45210  1.0000
  Si          0.33490      0.08640      0.78543  1.0000
  Si          0.91360      0.24850      0.11877  1.0000
  Si          0.33490      0.24850      0.38123  1.0000
  Si          0.91360      0.66510      0.04790  1.0000
  Si          0.75150      0.08640      0.71457  1.0000
  Si          0.66510      0.75150      0.88123  1.0000
  Si          0.08640      0.33490      0.54790  1.0000
  Si          0.24850      0.91360      0.21457  1.0000
  Si          0.97020      0.12290      0.96697  1.0000
  Si          0.87710      0.84730      0.30030  1.0000
  Si          0.15270      0.02980      0.63364  1.0000
  Si          0.02980      0.87710      0.46697  1.0000
  Si          0.12290      0.15270      0.80030  1.0000
  Si          0.84730      0.97020      0.13364  1.0000
  Si          0.12290      0.97020      0.36636  1.0000
  Si          0.84730      0.87710      0.03303  1.0000
  Si          0.02980      0.15270      0.69970  1.0000
  Si          0.87710      0.02980      0.86636  1.0000
  Si          0.15270      0.12290      0.53303  1.0000
  Si          0.97020      0.84730      0.19970  1.0000
  O           0.92400      0.00000      0.00000  1.0000
  O           0.00000      0.92400      0.33333  1.0000
  O           0.07600      0.07600      0.66667  1.0000
  O           0.07600      0.00000      0.50000  1.0000
  O           0.00000      0.07600      0.83333  1.0000
  O           0.92400      0.92400      0.16667  1.0000
  O           0.33640      0.58100      0.33257  1.0000
  O           0.41900      0.75540      0.66590  1.0000
  O           0.24460      0.66360      0.99924  1.0000
  O           0.66360      0.41900      0.83257  1.0000
  O           0.58100      0.24460      0.16590  1.0000
  O           0.75540      0.33640      0.49924  1.0000
  O           0.58100      0.33640      0.00076  1.0000
  O           0.75540      0.41900      0.66743  1.0000
  O           0.66360      0.24460      0.33410  1.0000
  O           0.41900      0.66360      0.50076  1.0000
  O           0.24460      0.58100      0.16743  1.0000
  O           0.33640      0.75540      0.83410  1.0000
  O           0.13110      0.21420      0.97184  1.0000
  O           0.78580      0.91690      0.30517  1.0000
  O           0.08310      0.86890      0.63851  1.0000
  O           0.86890      0.78580      0.47184  1.0000
  O           0.21420      0.08310      0.80517  1.0000
  O           0.91690      0.13110      0.13851  1.0000
  O           0.21420      0.13110      0.36149  1.0000
  O           0.91690      0.78580      0.02816  1.0000
  O           0.86890      0.08310      0.69483  1.0000
  O           0.78580      0.86890      0.86149  1.0000
  O           0.08310      0.21420      0.52816  1.0000
  O           0.13110      0.91690      0.19483  1.0000
  O           0.92880      0.85760      0.25000  1.0000
  O           0.14240      0.07120      0.58333  1.0000
  O           0.92880      0.07120      0.91667  1.0000
  O           0.07120      0.14240      0.75000  1.0000
  O           0.85760      0.92880      0.08333  1.0000
  O           0.07120      0.92880      0.41667  1.0000
  O           0.89820      0.20360      0.97865  1.0000
  O           0.79640      0.69460      0.31198  1.0000
  O           0.30540      0.10180      0.64532  1.0000
  O           0.10180      0.79640      0.47865  1.0000
  O           0.20360      0.30540      0.81198  1.0000
  O           0.69460      0.89820      0.14532  1.0000
  O           0.20360      0.89820      0.35468  1.0000
  O           0.69460      0.79640      0.02135  1.0000
  O           0.10180      0.30540      0.68802  1.0000
  O           0.79640      0.10180      0.85468  1.0000
  O           0.30540      0.20360      0.52135  1.0000
  O           0.89820      0.69460      0.18802  1.0000
  O           0.31870      0.63760      0.25000  1.0000
  O           0.36240      0.68110      0.58333  1.0000
  O           0.31890      0.68130      0.91667  1.0000
  O           0.68130      0.36240      0.75000  1.0000
  O           0.63760      0.31890      0.08333  1.0000
  O           0.68110      0.31870      0.41667  1.0000
  O           0.37030      0.32630      0.96898  1.0000
  O           0.67370      0.04400      0.30231  1.0000
  O           0.95600      0.62970      0.63565  1.0000
  O           0.62970      0.67370      0.46898  1.0000
  O           0.32630      0.95600      0.80231  1.0000
  O           0.04400      0.37030      0.13565  1.0000
  O           0.32630      0.37030      0.36435  1.0000
  O           0.04400      0.67370      0.03102  1.0000
  O           0.62970      0.95600      0.69769  1.0000
  O           0.67370      0.62970      0.86435  1.0000
  O           0.95600      0.32630      0.53102  1.0000
  O           0.37030      0.04400      0.19769  1.0000
  O           0.76940      0.30020      0.01135  1.0000
  O           0.69980      0.46920      0.34468  1.0000
  O           0.53080      0.23060      0.67802  1.0000
  O           0.23060      0.69980      0.51135  1.0000
  O           0.30020      0.53080      0.84468  1.0000
  O           0.46920      0.76940      0.17802  1.0000
  O           0.30020      0.76940      0.32198  1.0000
  O           0.46920      0.69980      0.98865  1.0000
  O           0.23060      0.53080      0.65532  1.0000
  O           0.69980      0.23060      0.82198  1.0000
  O           0.53080      0.30020      0.48865  1.0000
  O           0.76940      0.46920      0.15532  1.0000
  O           0.78770      0.52910      0.03096  1.0000
  O           0.47090      0.25860      0.36429  1.0000
  O           0.74140      0.21230      0.69763  1.0000
  O           0.21230      0.47090      0.53096  1.0000
  O           0.52910      0.74140      0.86429  1.0000
  O           0.25860      0.78770      0.19763  1.0000
  O           0.52910      0.78770      0.30237  1.0000
  O           0.25860      0.47090      0.96904  1.0000
  O           0.21230      0.74140      0.63571  1.0000
  O           0.47090      0.21230      0.80237  1.0000
  O           0.74140      0.52910      0.46904  1.0000
  O           0.78770      0.25860      0.13571  1.0000
  O           0.23380      0.32250      0.89867  1.0000
  O           0.67750      0.91130      0.23200  1.0000
  O           0.08870      0.76620      0.56534  1.0000
  O           0.76620      0.67750      0.39867  1.0000
  O           0.32250      0.08870      0.73200  1.0000
  O           0.91130      0.23380      0.06534  1.0000
  O           0.32250      0.23380      0.43466  1.0000
  O           0.91130      0.67750      0.10133  1.0000
  O           0.76620      0.08870      0.76800  1.0000
  O           0.67750      0.76620      0.93466  1.0000
  O           0.08870      0.32250      0.60133  1.0000
  O           0.23380      0.91130      0.26800  1.0000
  O           0.58590      0.55920      0.98834  1.0000
  O           0.44080      0.02670      0.32167  1.0000
  O           0.97330      0.41410      0.65501  1.0000
  O           0.41410      0.44080      0.48834  1.0000
  O           0.55920      0.97330      0.82167  1.0000
  O           0.02670      0.58590      0.15501  1.0000
  O           0.55920      0.58590      0.34499  1.0000
  O           0.02670      0.44080      0.01166  1.0000
  O           0.41410      0.97330      0.67833  1.0000
  O           0.44080      0.41410      0.84499  1.0000
  O           0.97330      0.55920      0.51166  1.0000
  O           0.58590      0.02670      0.17833  1.0000
  O           0.58560      0.17130      0.25000  1.0000
  O           0.82870      0.41430      0.58333  1.0000
  O           0.58570      0.41440      0.91667  1.0000
  O           0.41440      0.82870      0.75000  1.0000
  O           0.17130      0.58570      0.08333  1.0000
  O           0.41430      0.58560      0.41667  1.0000
  F           0.45100      0.90200      0.25000  1.0000
  F           0.09800      0.54900      0.58333  1.0000
  F           0.45100      0.54900      0.91667  1.0000
  F           0.54900      0.09800      0.75000  1.0000
  F           0.90200      0.45100      0.08333  1.0000
  F           0.54900      0.45100      0.41667  1.0000
