data_cif

_audit_creation_method             'generated by GULP'

_symmetry_space_group_name_H-M     'P 1'
_symmetry_Int_Tables_number        1
_symmetry_cell_setting             triclinic

_cell_length_a                       12.0000
_cell_length_b                       11.9341
_cell_length_c                       29.4162
_cell_angle_alpha                   90.4323
_cell_angle_beta                    89.9154
_cell_angle_gamma                  120.2091

loop_
_atom_site_label
_atom_site_fract_x
_atom_site_fract_y
_atom_site_fract_z
_atom_site_occupancy
  Si          0.69960      0.37570      0.03389  1.0000
  Si          0.60993      0.31345      0.36851  1.0000
  Si          0.66817      0.28715      0.70129  1.0000
  Si          0.29162      0.61150      0.53678  1.0000
  Si          0.37460      0.67282      0.86953  1.0000
  Ge          0.32441      0.71315      0.20561  1.0000
  Si          0.36284      0.68167      0.30384  1.0000
  Si          0.32151      0.61947      0.97031  1.0000
  Si          0.28814      0.66624      0.63745  1.0000
  Si          0.61624      0.29313      0.80201  1.0000
  Si          0.67028      0.36612      0.46906  1.0000
  Si          0.69775      0.32111      0.13422  1.0000
  Si          0.52769      0.41374      0.96914  1.0000
  Si          0.57174      0.10447      0.30121  1.0000
  Si          0.87695      0.45676      0.63546  1.0000
  Si          0.46648      0.57365      0.47345  1.0000
  Si          0.41126      0.88171      0.80449  1.0000
  Si          0.11271      0.53391      0.13798  1.0000
  Si          0.40982      0.52135      0.37183  1.0000
  Si          0.11122      0.58270      0.03520  1.0000
  Si          0.46134      0.87758      0.70272  1.0000
  Si          0.57786      0.46593      0.86727  1.0000
  Si          0.88121      0.40462      0.53359  1.0000
  Si          0.52089      0.10736      0.19800  1.0000
  Si          0.29758      0.39400      0.85367  1.0000
  Si          0.59591      0.89426      0.18217  1.0000
  Si          0.09091      0.68663      0.52031  1.0000
  Si          0.68863      0.59325      0.35488  1.0000
  Si          0.38928      0.08559      0.68745  1.0000
  Si          0.90105      0.30054      0.01961  1.0000
  Si          0.39371      0.29085      0.48574  1.0000
  Si          0.89822      0.60030      0.14970  1.0000
  Si          0.69315      0.09219      0.81773  1.0000
  Si          0.59970      0.69612      0.98427  1.0000
  Si          0.08611      0.38634      0.65059  1.0000
  Si          0.28568      0.88935      0.31457  1.0000
  Si          0.24945      0.33724      0.95444  1.0000
  Si          0.64777      0.89895      0.28557  1.0000
  Si          0.07943      0.73689      0.62108  1.0000
  Si          0.74326      0.64914      0.45588  1.0000
  Si          0.33392      0.08279      0.78833  1.0000
  Si          0.90869      0.25341      0.12024  1.0000
  Si          0.33070      0.24074      0.38502  1.0000
  Si          0.90820      0.65778      0.04891  1.0000
  Si          0.74075      0.07899      0.71687  1.0000
  Si          0.65514      0.74551      0.88340  1.0000
  Si          0.08254      0.32884      0.54971  1.0000
  Si          0.23534      0.90622      0.21214  1.0000
  Si          0.96960      0.12006      0.96879  1.0000
  Si          0.86643      0.84105      0.30314  1.0000
  Si          0.14138      0.01743      0.63649  1.0000
  Si          0.02410      0.86636      0.46962  1.0000
  Si          0.11634      0.14480      0.80268  1.0000
  Si          0.84977      0.97513      0.13431  1.0000
  Si          0.11021      0.96079      0.36806  1.0000
  Si          0.84957      0.87730      0.03402  1.0000
  Si          0.01970      0.13954      0.70174  1.0000
  Si          0.87391      0.02567      0.86781  1.0000
  Si          0.14566      0.11108      0.53541  1.0000
  Si          0.96017      0.84869      0.20141  1.0000
  O2          0.92703      0.99735      0.00073  1.0000
  O2          0.98740      0.92284      0.33634  1.0000
  O2          0.06067      0.05907      0.66874  1.0000
  O2          0.06795      0.99008      0.50181  1.0000
  O2          0.99368      0.06496      0.83463  1.0000
  O2          0.91737      0.92921      0.17040  1.0000
  O2          0.33195      0.57228      0.34176  1.0000
  O2          0.41033      0.74970      0.67069  1.0000
  O2          0.23790      0.65874      0.00319  1.0000
  O2          0.65484      0.41804      0.83436  1.0000
  O2          0.57373      0.23472      0.16680  1.0000
  O2          0.75625      0.32731      0.50057  1.0000
  O2          0.57648      0.33663      0.00097  1.0000
  O2          0.75145      0.40840      0.66759  1.0000
  O2          0.64657      0.22863      0.33450  1.0000
  O2          0.41843      0.65098      0.50598  1.0000
  O3          0.23145      0.57708      0.17015  1.0000
  O2          0.33515      0.75736      0.83729  1.0000
  O2          0.12370      0.21053      0.97460  1.0000
  O2          0.77314      0.90192      0.30743  1.0000
  O2          0.07730      0.86251      0.64137  1.0000
  O2          0.87037      0.77527      0.47609  1.0000
  O2          0.20786      0.08256      0.80847  1.0000
  O2          0.91344      0.12932      0.14034  1.0000
  O2          0.20249      0.11578      0.36465  1.0000
  O2          0.91085      0.78490      0.02828  1.0000
  O2          0.86542      0.07574      0.69693  1.0000
  O2          0.78123      0.87095      0.86275  1.0000
  O2          0.08346      0.20258      0.52932  1.0000
  O2          0.11481      0.92281      0.19665  1.0000
  O2          0.91858      0.85385      0.25270  1.0000
  O2          0.12923      0.05733      0.58584  1.0000
  O2          0.93011      0.06750      0.91796  1.0000
  O2          0.06349      0.12938      0.75190  1.0000
  O2          0.86982      0.93408      0.08460  1.0000
  O2          0.06001      0.91589      0.41855  1.0000
  O2          0.90058      0.20246      0.98089  1.0000
  O2          0.78521      0.68943      0.31613  1.0000
  O2          0.29256      0.08658      0.64901  1.0000
  O2          0.09395      0.78474      0.48156  1.0000
  O2          0.19843      0.29728      0.81494  1.0000
  O2          0.69779      0.90726      0.14386  1.0000
  O2          0.19062      0.89156      0.35330  1.0000
  O2          0.69707      0.79473      0.02296  1.0000
  O2          0.08786      0.29111      0.68924  1.0000
  O2          0.79253      0.09600      0.85596  1.0000
  O2          0.29805      0.19308      0.52434  1.0000
  O2          0.89507      0.69761      0.18810  1.0000
  O3          0.30604      0.61774      0.25592  1.0000
  O2          0.34705      0.66853      0.58729  1.0000
  O2          0.31949      0.67497      0.91999  1.0000
  O2          0.67148      0.34844      0.75136  1.0000
  O2          0.63898      0.31694      0.08381  1.0000
  O2          0.66950      0.31096      0.41801  1.0000
  O2          0.37144      0.32654      0.97224  1.0000
  O2          0.65406      0.03117      0.30290  1.0000
  O2          0.94607      0.61376      0.63840  1.0000
  O2          0.62289      0.66067      0.47531  1.0000
  O2          0.32421      0.95083      0.80706  1.0000
  O2          0.03985      0.37563      0.13840  1.0000
  O2          0.32228      0.36445      0.36736  1.0000
  O2          0.04060      0.66808      0.03085  1.0000
  O2          0.61722      0.94545      0.69889  1.0000
  O2          0.66495      0.62288      0.86447  1.0000
  O2          0.95047      0.31756      0.53053  1.0000
  O2          0.36523      0.03946      0.19702  1.0000
  O2          0.76796      0.30113      0.01084  1.0000
  O2          0.68426      0.45680      0.34600  1.0000
  O2          0.52437      0.21869      0.67920  1.0000
  O2          0.22481      0.68633      0.51332  1.0000
  O2          0.29867      0.52897      0.84655  1.0000
  O3          0.46892      0.76110      0.17352  1.0000
  O2          0.28912      0.75762      0.32251  1.0000
  O2          0.46569      0.69524      0.99219  1.0000
  O2          0.21898      0.52171      0.65885  1.0000
  O2          0.69257      0.22668      0.82443  1.0000
  O2          0.52738      0.28979      0.49162  1.0000
  O2          0.76310      0.46532      0.15679  1.0000
  O2          0.78055      0.53270      0.02906  1.0000
  O2          0.45355      0.23627      0.36451  1.0000
  O2          0.74250      0.20523      0.69664  1.0000
  O2          0.21023      0.45467      0.53083  1.0000
  O2          0.53046      0.74784      0.86416  1.0000
  O3          0.22475      0.78147      0.18976  1.0000
  O2          0.52006      0.77495      0.30452  1.0000
  O2          0.24857      0.46279      0.97461  1.0000
  O2          0.20481      0.73885      0.64170  1.0000
  O2          0.46035      0.21057      0.80721  1.0000
  O2          0.74377      0.52274      0.47452  1.0000
  O2          0.77969      0.24738      0.14005  1.0000
  O2          0.22819      0.31896      0.90001  1.0000
  O2          0.66286      0.89860      0.23119  1.0000
  O2          0.08491      0.75740      0.56666  1.0000
  O2          0.76097      0.66681      0.40143  1.0000
  O2          0.31560      0.08279      0.73390  1.0000
  O2          0.90283      0.22908      0.06589  1.0000
  O2          0.31561      0.22134      0.43942  1.0000
  O2          0.90508      0.67596      0.10333  1.0000
  O2          0.76137      0.08431      0.77122  1.0000
  O2          0.67381      0.76631      0.93780  1.0000
  O2          0.08266      0.31111      0.60408  1.0000
  O2          0.22029      0.89329      0.26747  1.0000
  O2          0.58513      0.55598      0.99240  1.0000
  O2          0.42837      0.01292      0.32067  1.0000
  O2          0.96053      0.39983      0.65867  1.0000
  O2          0.41151      0.43184      0.49589  1.0000
  O2          0.55324      0.96764      0.82708  1.0000
  O2          0.02073      0.58466      0.15977  1.0000
  O2          0.54981      0.58132      0.34751  1.0000
  O2          0.02791      0.44018      0.01192  1.0000
  O2          0.40242      0.95907      0.67896  1.0000
  O2          0.43627      0.40745      0.84422  1.0000
  O2          0.96533      0.54654      0.51072  1.0000
  O2          0.57112      0.01580      0.17694  1.0000
  O2          0.57075      0.15192      0.25000  1.0000
  O2          0.82585      0.40337      0.58421  1.0000
  O2          0.57896      0.41307      0.91794  1.0000
  O2          0.40977      0.82602      0.75370  1.0000
  O2          0.16139      0.58603      0.08638  1.0000
  O2          0.41132      0.57290      0.42306  1.0000
  F           0.41580      0.85881      0.24213  1.0000
  F           0.08801      0.53628      0.58476  1.0000
  F           0.44874      0.54499      0.91832  1.0000
  F           0.54133      0.08841      0.75186  1.0000
  F           0.89346      0.44729      0.08416  1.0000
  F           0.54049      0.44021      0.41944  1.0000
