data_cif

_audit_creation_method             'generated by GULP'

_symmetry_space_group_name_H-M     'P 1'
_symmetry_Int_Tables_number        1
_symmetry_cell_setting             triclinic

_cell_length_a                       12.0612
_cell_length_b                       12.0780
_cell_length_c                       29.6403
_cell_angle_alpha                   89.9039
_cell_angle_beta                    90.0051
_cell_angle_gamma                  119.9975

loop_
_atom_site_label
_atom_site_fract_x
_atom_site_fract_y
_atom_site_fract_z
_atom_site_occupancy
  Ge          0.69960      0.37570      0.03389  1.0000
  Ge          0.58305      0.29413      0.36867  1.0000
  Ge          0.66059      0.25239      0.70339  1.0000
  Ge          0.26182      0.57501      0.53600  1.0000
  Ge          0.38304      0.65708      0.86914  1.0000
  Ge          0.30178      0.69475      0.20064  1.0000
  Ge          0.34167      0.65877      0.29871  1.0000
  Si          0.30791      0.61943      0.96628  1.0000
  Ge          0.29781      0.65043      0.63419  1.0000
  Si          0.62574      0.29526      0.80037  1.0000
  Ge          0.65718      0.33486      0.46693  1.0000
  Ge          0.66734      0.30169      0.13204  1.0000
  Si          0.52542      0.41626      0.96686  1.0000
  Si          0.54369      0.07905      0.30200  1.0000
  Si          0.87672      0.43076      0.63753  1.0000
  Si          0.43690      0.53539      0.46863  1.0000
  Si          0.42249      0.87410      0.80406  1.0000
  Si          0.08747      0.51895      0.13354  1.0000
  Si          0.38088      0.48431      0.36577  1.0000
  Si          0.09256      0.57423      0.03070  1.0000
  Si          0.47112      0.86487      0.70105  1.0000
  Si          0.57981      0.46633      0.86386  1.0000
  Si          0.86943      0.37389      0.53466  1.0000
  Si          0.49386      0.08748      0.19917  1.0000
  Si          0.29445      0.38771      0.84587  1.0000
  Si          0.57480      0.88307      0.17982  1.0000
  Si          0.07342      0.65966      0.51507  1.0000
  Si          0.66731      0.56638      0.34702  1.0000
  Si          0.38964      0.06851      0.68118  1.0000
  Si          0.88527      0.28916      0.01259  1.0000
  Si          0.37010      0.25063      0.47995  1.0000
  Si          0.87093      0.58795      0.14468  1.0000
  Si          0.70617      0.09246      0.81370  1.0000
  Si          0.59216      0.69955      0.97774  1.0000
  Si          0.09536      0.36414      0.64791  1.0000
  Si          0.25827      0.86138      0.31279  1.0000
  Si          0.24524      0.33885      0.94871  1.0000
  Si          0.62581      0.88012      0.28256  1.0000
  Si          0.07524      0.71164      0.61787  1.0000
  Si          0.71880      0.61810      0.44982  1.0000
  Si          0.34473      0.07526      0.78409  1.0000
  Si          0.88744      0.23755      0.11523  1.0000
  Si          0.30099      0.20156      0.37807  1.0000
  Si          0.89204      0.65731      0.04258  1.0000
  Si          0.75493      0.06716      0.71211  1.0000
  Si          0.66342      0.74986      0.87572  1.0000
  Si          0.07258      0.29356      0.54615  1.0000
  Si          0.21053      0.88464      0.21098  1.0000
  Si          0.97028      0.11931      0.96471  1.0000
  Si          0.84159      0.82119      0.29807  1.0000
  Si          0.13397      0.98585      0.63229  1.0000
  Si          0.99300      0.83386      0.46550  1.0000
  Si          0.12602      0.13175      0.79875  1.0000
  Si          0.82944      0.96318      0.13078  1.0000
  Si          0.07958      0.93023      0.36463  1.0000
  Si          0.83971      0.87826      0.02981  1.0000
  Si          0.02577      0.11503      0.69867  1.0000
  Si          0.88587      0.02305      0.86420  1.0000
  Si          0.12181      0.07185      0.53170  1.0000
  Si          0.93932      0.83472      0.19717  1.0000
  O2          0.92478      0.00258      0.99947  1.0000
  O2          0.95834      0.89032      0.33270  1.0000
  O2          0.06365      0.03469      0.66571  1.0000
  O2          0.04007      0.95185      0.49943  1.0000
  O2          0.00774      0.06152      0.83279  1.0000
  O2          0.89915      0.91675      0.16571  1.0000
  O3          0.30508      0.53607      0.33708  1.0000
  O3          0.41897      0.73630      0.67301  1.0000
  O2          0.22433      0.64863      0.00227  1.0000
  O2          0.65485      0.40965      0.83549  1.0000
  O3          0.54614      0.21597      0.17101  1.0000
  O3          0.74152      0.29848      0.50615  1.0000
  O3          0.56812      0.33989      0.99746  1.0000
  O3          0.75806      0.38744      0.66873  1.0000
  O3          0.61926      0.19806      0.33264  1.0000
  O3          0.39264      0.61071      0.49908  1.0000
  O3          0.20725      0.56372      0.16393  1.0000
  O3          0.34580      0.75649      0.83555  1.0000
  O2          0.12297      0.21195      0.96958  1.0000
  O2          0.75671      0.88962      0.30188  1.0000
  O2          0.06595      0.83294      0.63716  1.0000
  O2          0.83953      0.74923      0.46914  1.0000
  O2          0.21908      0.07281      0.80516  1.0000
  O2          0.89807      0.11649      0.13417  1.0000
  O2          0.16455      0.08351      0.36136  1.0000
  O2          0.90706      0.79236      0.02567  1.0000
  O2          0.87224      0.04612      0.69660  1.0000
  O2          0.79986      0.87001      0.86000  1.0000
  O2          0.05335      0.15688      0.52945  1.0000
  O2          0.09286      0.90381      0.19424  1.0000
  O2          0.89551      0.83605      0.24791  1.0000
  O2          0.11884      0.02230      0.58182  1.0000
  O2          0.93447      0.06302      0.91487  1.0000
  O2          0.07257      0.10805      0.74845  1.0000
  O2          0.84276      0.92108      0.08095  1.0000
  O2          0.03276      0.88676      0.41525  1.0000
  O2          0.90151      0.20114      0.97502  1.0000
  O2          0.75479      0.67137      0.30934  1.0000
  O2          0.28382      0.05027      0.64385  1.0000
  O2          0.05571      0.74720      0.47748  1.0000
  O2          0.20610      0.28277      0.80854  1.0000
  O2          0.67974      0.90089      0.14215  1.0000
  O2          0.16311      0.86559      0.35061  1.0000
  O2          0.69100      0.79792      0.01508  1.0000
  O2          0.08977      0.26377      0.68562  1.0000
  O2          0.80478      0.09198      0.85112  1.0000
  O2          0.26997      0.15578      0.51764  1.0000
  O2          0.87551      0.68745      0.18237  1.0000
  O1          0.28443      0.59403      0.24723  1.0000
  O1          0.36252      0.65875      0.58256  1.0000
  O3          0.30199      0.67303      0.91816  1.0000
  O3          0.67792      0.35181      0.75179  1.0000
  O1          0.60033      0.29322      0.08085  1.0000
  O1          0.66629      0.27790      0.41559  1.0000
  O2          0.36920      0.33505      0.96594  1.0000
  O2          0.62744      0.00691      0.29973  1.0000
  O2          0.94769      0.58645      0.63481  1.0000
  O2          0.59291      0.61942      0.46653  1.0000
  O2          0.34067      0.94840      0.80237  1.0000
  O2          0.01547      0.36321      0.13153  1.0000
  O2          0.30055      0.32981      0.36170  1.0000
  O2          0.02140      0.65765      0.02607  1.0000
  O2          0.62597      0.93682      0.69714  1.0000
  O2          0.66523      0.62102      0.85992  1.0000
  O2          0.94372      0.29367      0.53017  1.0000
  O2          0.33917      0.01341      0.19491  1.0000
  O3          0.75619      0.28771      0.00192  1.0000
  O3          0.66949      0.43899      0.33641  1.0000
  O3          0.51674      0.19833      0.67040  1.0000
  O3          0.20251      0.66100      0.50392  1.0000
  O3          0.29108      0.51457      0.83595  1.0000
  O3          0.44720      0.75413      0.16874  1.0000
  O3          0.25441      0.72875      0.31963  1.0000
  O2          0.45699      0.69620      0.98455  1.0000
  O3          0.22839      0.49256      0.65463  1.0000
  O2          0.70335      0.22461      0.81953  1.0000
  O3          0.49912      0.24733      0.48728  1.0000
  O3          0.73786      0.45969      0.15207  1.0000
  O3          0.76779      0.54359      0.02107  1.0000
  O3          0.41483      0.19131      0.35625  1.0000
  O3          0.76576      0.18972      0.68897  1.0000
  O3          0.19644      0.40678      0.52395  1.0000
  O3          0.55033      0.75999      0.85356  1.0000
  O3          0.19954      0.76084      0.18874  1.0000
  O3          0.50794      0.75405      0.30281  1.0000
  O2          0.24516      0.46392      0.96757  1.0000
  O3          0.20096      0.71954      0.63826  1.0000
  O2          0.47032      0.20156      0.80199  1.0000
  O3          0.72721      0.50088      0.47054  1.0000
  O3          0.76274      0.23075      0.13621  1.0000
  O2          0.22955      0.32488      0.89454  1.0000
  O2          0.63610      0.87706      0.22811  1.0000
  O2          0.07941      0.72615      0.56342  1.0000
  O2          0.73340      0.62790      0.39538  1.0000
  O2          0.32886      0.07357      0.72989  1.0000
  O2          0.88124      0.22265      0.06084  1.0000
  O2          0.29833      0.18908      0.43280  1.0000
  O2          0.88333      0.66021      0.09735  1.0000
  O2          0.76937      0.08392      0.76686  1.0000
  O2          0.66240      0.76240      0.93060  1.0000
  O2          0.08335      0.29132      0.60085  1.0000
  O2          0.19734      0.87329      0.26568  1.0000
  O2          0.57040      0.55884      0.98579  1.0000
  O2          0.40248      0.97602      0.32073  1.0000
  O2          0.98131      0.39454      0.65597  1.0000
  O2          0.39884      0.39452      0.48753  1.0000
  O2          0.56533      0.97410      0.82229  1.0000
  O2          0.98504      0.55746      0.15258  1.0000
  O2          0.52241      0.54274      0.34353  1.0000
  O2          0.00709      0.43361      0.00908  1.0000
  O2          0.41258      0.94668      0.67769  1.0000
  O2          0.43949      0.41117      0.84154  1.0000
  O2          0.95163      0.51512      0.51216  1.0000
  O2          0.55212      0.00481      0.17667  1.0000
  O2          0.53458      0.12348      0.25103  1.0000
  O2          0.83239      0.37712      0.58657  1.0000
  O2          0.57559      0.42383      0.91546  1.0000
  O2          0.42872      0.82913      0.75296  1.0000
  O2          0.13066      0.57215      0.08238  1.0000
  O2          0.38427      0.52565      0.41750  1.0000
  F           0.39033      0.83194      0.24105  1.0000
  F           0.12436      0.52542      0.57618  1.0000
  F           0.43591      0.56844      0.90509  1.0000
  F           0.57354      0.11279      0.74026  1.0000
  F           0.83828      0.42429      0.07378  1.0000
  F           0.53282      0.38228      0.40838  1.0000
