data_cif

_audit_creation_method             'generated by GULP'

_symmetry_space_group_name_H-M     'P 1'
_symmetry_Int_Tables_number        1
_symmetry_cell_setting             triclinic

_cell_length_a                       12.0530
_cell_length_b                       12.0628
_cell_length_c                       29.6196
_cell_angle_alpha                   89.9567
_cell_angle_beta                    89.9552
_cell_angle_gamma                  120.0655

loop_
_atom_site_label
_atom_site_fract_x
_atom_site_fract_y
_atom_site_fract_z
_atom_site_occupancy
  Ge          0.69960      0.37570      0.03389  1.0000
  Ge          0.61308      0.31574      0.36695  1.0000
  Ge          0.67182      0.29100      0.70108  1.0000
  Ge          0.29542      0.61914      0.52231  1.0000
  Si          0.36824      0.67298      0.85604  1.0000
  Si          0.31852      0.69113      0.18794  1.0000
  Ge          0.38024      0.70240      0.28609  1.0000
  Ge          0.31858      0.60915      0.95410  1.0000
  Ge          0.29009      0.67391      0.62108  1.0000
  Ge          0.61785      0.29821      0.79953  1.0000
  Ge          0.67077      0.37253      0.46545  1.0000
  Ge          0.69455      0.31567      0.13240  1.0000
  Si          0.51334      0.41392      0.97249  1.0000
  Si          0.57682      0.09182      0.30577  1.0000
  Si          0.89411      0.47683      0.63861  1.0000
  Si          0.45776      0.57456      0.45081  1.0000
  Si          0.41666      0.88251      0.78803  1.0000
  Si          0.11009      0.53111      0.11947  1.0000
  Si          0.41327      0.51385      0.34787  1.0000
  Si          0.09793      0.57670      0.01654  1.0000
  Si          0.47432      0.89314      0.68516  1.0000
  Si          0.57299      0.46182      0.86951  1.0000
  Si          0.87929      0.41610      0.53576  1.0000
  Si          0.53140      0.10708      0.20281  1.0000
  Si          0.29105      0.38776      0.84951  1.0000
  Si          0.60453      0.89902      0.18240  1.0000
  Si          0.08776      0.69964      0.51511  1.0000
  Si          0.70109      0.58507      0.33967  1.0000
  Si          0.40118      0.10769      0.67555  1.0000
  Si          0.88249      0.28868      0.00792  1.0000
  Si          0.38256      0.29135      0.47213  1.0000
  Si          0.89914      0.60337      0.13949  1.0000
  Si          0.70038      0.09365      0.80744  1.0000
  Si          0.58589      0.70071      0.98247  1.0000
  Si          0.10853      0.40396      0.64811  1.0000
  Si          0.28906      0.87779      0.31516  1.0000
  Si          0.23127      0.32977      0.95178  1.0000
  Si          0.66042      0.89397      0.28466  1.0000
  Si          0.09280      0.75838      0.61744  1.0000
  Si          0.74201      0.65439      0.44176  1.0000
  Si          0.33454      0.08396      0.77806  1.0000
  Si          0.90840      0.24684      0.11030  1.0000
  Si          0.33118      0.23301      0.36970  1.0000
  Si          0.89769      0.65781      0.03718  1.0000
  Si          0.75650      0.09386      0.70520  1.0000
  Si          0.64813      0.74265      0.87989  1.0000
  Si          0.08300      0.33651      0.54585  1.0000
  Si          0.24976      0.90126      0.21259  1.0000
  Si          0.95753      0.11051      0.96100  1.0000
  Si          0.87966      0.83920      0.29357  1.0000
  Si          0.14868      0.03242      0.62758  1.0000
  Si          0.01295      0.87507      0.46198  1.0000
  Si          0.11510      0.13802      0.79639  1.0000
  Si          0.85533      0.97373      0.12952  1.0000
  Si          0.11404      0.95787      0.36163  1.0000
  Si          0.84083      0.87562      0.02897  1.0000
  Si          0.03124      0.15036      0.69543  1.0000
  Si          0.87090      0.01465      0.86042  1.0000
  Si          0.13341      0.11627      0.52673  1.0000
  Si          0.97829      0.85266      0.19310  1.0000
  O2          0.90909      0.99476      0.99566  1.0000
  O2          0.99408      0.90541      0.32876  1.0000
  O2          0.07950      0.08090      0.66155  1.0000
  O2          0.04930      0.99363      0.49531  1.0000
  O2          0.99300      0.05388      0.82834  1.0000
  O2          0.93971      0.93741      0.16187  1.0000
  O3          0.34033      0.55765      0.31543  1.0000
  O3          0.42992      0.77524      0.65357  1.0000
  O3          0.21517      0.64941      0.98424  1.0000
  O3          0.65023      0.41082      0.84181  1.0000
  O3          0.58331      0.23588      0.17532  1.0000
  O3          0.74982      0.34067      0.50855  1.0000
  O3          0.55838      0.33841      0.00297  1.0000
  O3          0.77470      0.43194      0.66974  1.0000
  O3          0.65131      0.21153      0.33668  1.0000
  O3          0.40498      0.65020      0.47881  1.0000
  O2          0.24157      0.58905      0.14790  1.0000
  O2          0.34261      0.75119      0.81659  1.0000
  O2          0.11030      0.19314      0.96727  1.0000
  O2          0.79651      0.90855      0.30010  1.0000
  O2          0.07978      0.87980      0.63419  1.0000
  O2          0.85893      0.78880      0.46093  1.0000
  O2          0.20235      0.07136      0.79754  1.0000
  O2          0.92181      0.12772      0.12970  1.0000
  O2          0.19812      0.10959      0.35280  1.0000
  O2          0.90855      0.79154      0.02054  1.0000
  O2          0.87866      0.08190      0.68845  1.0000
  O2          0.77723      0.86130      0.85847  1.0000
  O2          0.06563      0.20232      0.52671  1.0000
  O2          0.13176      0.91260      0.19123  1.0000
  O2          0.93548      0.85918      0.24346  1.0000
  O2          0.13429      0.06759      0.57678  1.0000
  O2          0.92156      0.05678      0.91066  1.0000
  O2          0.06515      0.13396      0.74626  1.0000
  O2          0.85954      0.92463      0.07996  1.0000
  O2          0.06663      0.93049      0.41292  1.0000
  O2          0.89192      0.19623      0.97029  1.0000
  O2          0.79400      0.68718      0.30199  1.0000
  O2          0.29972      0.09885      0.63788  1.0000
  O2          0.07332      0.78884      0.47737  1.0000
  O2          0.19873      0.28621      0.81156  1.0000
  O2          0.70699      0.90935      0.14461  1.0000
  O2          0.19603      0.88805      0.35246  1.0000
  O2          0.68905      0.79336      0.01975  1.0000
  O2          0.09920      0.30176      0.68570  1.0000
  O2          0.79021      0.08139      0.84552  1.0000
  O2          0.27905      0.20148      0.50999  1.0000
  O2          0.91163      0.70591      0.17740  1.0000
  O3          0.30838      0.61839      0.23354  1.0000
  O1          0.37708      0.68813      0.57054  1.0000
  O3          0.30536      0.68142      0.90181  1.0000
  O1          0.68507      0.37893      0.75112  1.0000
  O1          0.61258      0.30152      0.08430  1.0000
  O1          0.68497      0.30289      0.41780  1.0000
  O2          0.35691      0.32906      0.97051  1.0000
  O2          0.66151      0.02027      0.30369  1.0000
  O2          0.96671      0.63299      0.63642  1.0000
  O2          0.61253      0.65453      0.45559  1.0000
  O2          0.33331      0.95370      0.79272  1.0000
  O2          0.03874      0.37657      0.12456  1.0000
  O2          0.32871      0.35752      0.35094  1.0000
  O2          0.02613      0.66104      0.01942  1.0000
  O2          0.63068      0.96597      0.68759  1.0000
  O2          0.65205      0.61656      0.86478  1.0000
  O2          0.95396      0.33616      0.53117  1.0000
  O2          0.37657      0.03168      0.19794  1.0000
  O3          0.74718      0.27958      0.00251  1.0000
  O3          0.70935      0.45840      0.33483  1.0000
  O3          0.52801      0.24237      0.66963  1.0000
  O3          0.21461      0.69685      0.50228  1.0000
  O2          0.29953      0.52351      0.83836  1.0000
  O2          0.46872      0.77221      0.17076  1.0000
  O3          0.28101      0.74311      0.31991  1.0000
  O3          0.45895      0.70799      0.98766  1.0000
  O3          0.24317      0.53101      0.65321  1.0000
  O3          0.69778      0.22021      0.82010  1.0000
  O3          0.51228      0.29541      0.48579  1.0000
  O3          0.77306      0.47390      0.15273  1.0000
  O3          0.77020      0.54142      0.01799  1.0000
  O3          0.44753      0.22050      0.35125  1.0000
  O3          0.76817      0.22140      0.68577  1.0000
  O3          0.20508      0.45151      0.52233  1.0000
  O2          0.52474      0.74118      0.85828  1.0000
  O2          0.25103      0.77983      0.19053  1.0000
  O3          0.54575      0.76458      0.30334  1.0000
  O3          0.21560      0.44335      0.97083  1.0000
  O3          0.22210      0.77199      0.63596  1.0000
  O3          0.45033      0.20514      0.80132  1.0000
  O3          0.74845      0.54023      0.46608  1.0000
  O3          0.78736      0.24108      0.13387  1.0000
  O2          0.22116      0.32497      0.89651  1.0000
  O2          0.66606      0.89020      0.22938  1.0000
  O2          0.09467      0.76860      0.56245  1.0000
  O2          0.75994      0.65776      0.38765  1.0000
  O2          0.32999      0.09513      0.72383  1.0000
  O2          0.89651      0.23070      0.05611  1.0000
  O2          0.32207      0.22192      0.42474  1.0000
  O2          0.89235      0.66551      0.09217  1.0000
  O2          0.76930      0.09919      0.76018  1.0000
  O2          0.65677      0.76014      0.93391  1.0000
  O2          0.09514      0.33207      0.60004  1.0000
  O2          0.23093      0.89062      0.26658  1.0000
  O2          0.55740      0.55626      0.99177  1.0000
  O2          0.43384      0.99303      0.32474  1.0000
  O2          0.99425      0.43459      0.65726  1.0000
  O2          0.40257      0.43429      0.47375  1.0000
  O2          0.55678      0.97124      0.80981  1.0000
  O2          0.02196      0.58296      0.14138  1.0000
  O2          0.55605      0.55338      0.33043  1.0000
  O2          0.99543      0.43410      0.99889  1.0000
  O2          0.43202      0.99357      0.66700  1.0000
  O2          0.43220      0.40456      0.84651  1.0000
  O2          0.96566      0.55619      0.51285  1.0000
  O2          0.58852      0.02371      0.17971  1.0000
  O2          0.57060      0.13889      0.25478  1.0000
  O2          0.84694      0.42335      0.58779  1.0000
  O2          0.56632      0.42163      0.92136  1.0000
  O2          0.42068      0.84598      0.73634  1.0000
  O2          0.14608      0.57077      0.06761  1.0000
  O2          0.41829      0.56797      0.39874  1.0000
  F           0.43607      0.85215      0.25420  1.0000
  F           0.14200      0.57773      0.58454  1.0000
  F           0.41302      0.55475      0.92161  1.0000
  F           0.57680      0.14380      0.73874  1.0000
  F           0.84748      0.42832      0.07119  1.0000
  F           0.56096      0.41294      0.40361  1.0000
