data_cif

_audit_creation_method             'generated by GULP'

_symmetry_space_group_name_H-M     'P 1'
_symmetry_Int_Tables_number        1
_symmetry_cell_setting             triclinic

_cell_length_a                       12.0571
_cell_length_b                       12.0711
_cell_length_c                       29.6203
_cell_angle_alpha                   89.8366
_cell_angle_beta                    89.3779
_cell_angle_gamma                  120.0773

loop_
_atom_site_label
_atom_site_fract_x
_atom_site_fract_y
_atom_site_fract_z
_atom_site_occupancy
  Ge          0.69960      0.37570      0.03389  1.0000
  Ge          0.64268      0.33345      0.36573  1.0000
  Ge          0.68816      0.29497      0.69929  1.0000
  Ge          0.32250      0.63414      0.52427  1.0000
  Si          0.38433      0.69201      0.85815  1.0000
  Si          0.34703      0.70352      0.19000  1.0000
  Ge          0.41003      0.72130      0.28794  1.0000
  Ge          0.33807      0.61981      0.95589  1.0000
  Ge          0.30795      0.68342      0.62305  1.0000
  Si          0.64486      0.31901      0.79697  1.0000
  Ge          0.69827      0.38644      0.46415  1.0000
  Ge          0.74031      0.33769      0.13092  1.0000
  Si          0.52535      0.41958      0.96918  1.0000
  Si          0.60839      0.11299      0.30295  1.0000
  Si          0.91179      0.48528      0.63764  1.0000
  Si          0.48762      0.59036      0.45300  1.0000
  Si          0.43502      0.90336      0.79045  1.0000
  Si          0.13647      0.53891      0.12402  1.0000
  Si          0.44421      0.53430      0.35002  1.0000
  Si          0.11956      0.58284      0.02131  1.0000
  Si          0.48850      0.90259      0.68728  1.0000
  Ge          0.58552      0.47500      0.86484  1.0000
  Si          0.90491      0.42946      0.53461  1.0000
  Si          0.56558      0.12369      0.19941  1.0000
  Si          0.30034      0.40599      0.84753  1.0000
  Si          0.63275      0.90896      0.18314  1.0000
  Si          0.11500      0.71418      0.51544  1.0000
  Si          0.73192      0.60534      0.34026  1.0000
  Si          0.41857      0.11842      0.67545  1.0000
  Si          0.90188      0.29611      0.01467  1.0000
  Si          0.41101      0.30611      0.47311  1.0000
  Si          0.92793      0.61412      0.14591  1.0000
  Si          0.71877      0.11086      0.80613  1.0000
  Si          0.60638      0.70836      0.98219  1.0000
  Si          0.12513      0.41203      0.64845  1.0000
  Si          0.32061      0.89948      0.31471  1.0000
  Si          0.24370      0.33939      0.95030  1.0000
  Si          0.69022      0.91243      0.28530  1.0000
  Si          0.11099      0.76761      0.61782  1.0000
  Si          0.77163      0.66956      0.44243  1.0000
  Si          0.36103      0.11001      0.77863  1.0000
  Si          0.93612      0.25368      0.11603  1.0000
  Si          0.36092      0.25246      0.37077  1.0000
  Si          0.91870      0.66184      0.04342  1.0000
  Si          0.77277      0.10100      0.70410  1.0000
  Si          0.66650      0.76005      0.87892  1.0000
  Si          0.10828      0.35003      0.54611  1.0000
  Si          0.28329      0.91853      0.21195  1.0000
  Si          0.97072      0.11829      0.96244  1.0000
  Si          0.91128      0.86123      0.29432  1.0000
  Si          0.16635      0.04112      0.62767  1.0000
  Si          0.04179      0.89038      0.46239  1.0000
  Si          0.13350      0.15753      0.79655  1.0000
  Si          0.88305      0.98056      0.12977  1.0000
  Si          0.14404      0.97822      0.36194  1.0000
  Si          0.86108      0.87966      0.02914  1.0000
  Si          0.04690      0.15698      0.69562  1.0000
  Si          0.88825      0.03640      0.86057  1.0000
  Si          0.15918      0.13004      0.52694  1.0000
  Si          0.01138      0.86819      0.19454  1.0000
  O2          0.92892      0.99388      0.99292  1.0000
  O2          0.02438      0.92726      0.32952  1.0000
  O2          0.09655      0.08906      0.66173  1.0000
  O2          0.07651      0.00859      0.49544  1.0000
  O2          0.01298      0.07131      0.82975  1.0000
  O2          0.96843      0.94105      0.15947  1.0000
  O3          0.37038      0.57794      0.31831  1.0000
  O3          0.44290      0.78170      0.65758  1.0000
  O3          0.23542      0.65731      0.98804  1.0000
  O3          0.67431      0.42554      0.83435  1.0000
  O3          0.61565      0.24859      0.17064  1.0000
  O3          0.77814      0.35404      0.50672  1.0000
  O3          0.56827      0.34137      0.00010  1.0000
  O3          0.79036      0.43769      0.66863  1.0000
  O3          0.68170      0.23345      0.33344  1.0000
  O3          0.43597      0.66616      0.48175  1.0000
  O2          0.26946      0.59868      0.15100  1.0000
  O2          0.35853      0.77487      0.82083  1.0000
  O2          0.12399      0.20270      0.96640  1.0000
  O2          0.82660      0.92882      0.30088  1.0000
  O2          0.09679      0.88849      0.63439  1.0000
  O2          0.88805      0.80266      0.46200  1.0000
  O2          0.23502      0.10722      0.80031  1.0000
  O2          0.95385      0.13450      0.13208  1.0000
  O2          0.22752      0.13049      0.35398  1.0000
  O2          0.92466      0.79080      0.02357  1.0000
  O2          0.89419      0.08509      0.68906  1.0000
  O2          0.79211      0.88433      0.85802  1.0000
  O2          0.09274      0.21720      0.52663  1.0000
  O2          0.16462      0.92914      0.19094  1.0000
  O2          0.97030      0.88555      0.24418  1.0000
  O2          0.15476      0.07848      0.57703  1.0000
  O2          0.93181      0.07665      0.91124  1.0000
  O2          0.08212      0.13989      0.74630  1.0000
  O2          0.88256      0.93685      0.07872  1.0000
  O2          0.09551      0.94664      0.41326  1.0000
  O2          0.90404      0.19975      0.97681  1.0000
  O2          0.82595      0.70893      0.30263  1.0000
  O2          0.31650      0.10762      0.63842  1.0000
  O2          0.10369      0.80557      0.47782  1.0000
  O2          0.20353      0.30721      0.81008  1.0000
  O2          0.73519      0.91552      0.14546  1.0000
  O2          0.22707      0.91025      0.35196  1.0000
  O2          0.70937      0.79676      0.01965  1.0000
  O2          0.11235      0.30821      0.68617  1.0000
  O2          0.81227      0.10749      0.84443  1.0000
  O2          0.30636      0.21481      0.51108  1.0000
  O2          0.94532      0.71863      0.18324  1.0000
  O3          0.33516      0.63378      0.23653  1.0000
  O1          0.39966      0.70144      0.57311  1.0000
  O3          0.32617      0.69851      0.90554  1.0000
  O3          0.70369      0.38576      0.75006  1.0000
  O1          0.63589      0.31595      0.08562  1.0000
  O1          0.71258      0.31733      0.41634  1.0000
  O2          0.36987      0.33777      0.96787  1.0000
  O2          0.69196      0.04024      0.30264  1.0000
  O2          0.98314      0.64138      0.63602  1.0000
  O2          0.64222      0.66896      0.45744  1.0000
  O2          0.35624      0.97946      0.79528  1.0000
  O2          0.06706      0.38431      0.12938  1.0000
  O2          0.35946      0.37807      0.35293  1.0000
  O2          0.04615      0.66532      0.02466  1.0000
  O2          0.64510      0.97270      0.68842  1.0000
  O3          0.67633      0.64040      0.86200  1.0000
  O2          0.98075      0.35051      0.53067  1.0000
  O2          0.40957      0.04808      0.19654  1.0000
  O3          0.76707      0.28936      0.00961  1.0000
  O3          0.73974      0.47880      0.33472  1.0000
  O3          0.54611      0.25115      0.66756  1.0000
  O3          0.24314      0.71223      0.50359  1.0000
  O2          0.30955      0.54353      0.83994  1.0000
  O2          0.49778      0.78037      0.17260  1.0000
  O3          0.31260      0.76528      0.32147  1.0000
  O3          0.47842      0.71287      0.98928  1.0000
  O3          0.25935      0.53853      0.65450  1.0000
  O2          0.71297      0.23941      0.81561  1.0000
  O3          0.54043      0.30928      0.48598  1.0000
  O3          0.80125      0.48643      0.15960  1.0000
  O3          0.79174      0.54163      0.02530  1.0000
  O3          0.47698      0.24020      0.35143  1.0000
  O3          0.78716      0.22768      0.68285  1.0000
  O3          0.23277      0.46657      0.52385  1.0000
  O2          0.53984      0.75400      0.85860  1.0000
  O2          0.28313      0.79548      0.19071  1.0000
  O3          0.57533      0.78456      0.30533  1.0000
  O3          0.23101      0.45297      0.97069  1.0000
  O3          0.23822      0.78022      0.63745  1.0000
  O2          0.48663      0.23229      0.79859  1.0000
  O3          0.77810      0.55412      0.46568  1.0000
  O3          0.81472      0.24331      0.14074  1.0000
  O2          0.23629      0.33823      0.89519  1.0000
  O2          0.69550      0.90364      0.23011  1.0000
  O2          0.11800      0.78064      0.56292  1.0000
  O2          0.79016      0.67630      0.38825  1.0000
  O2          0.35099      0.11311      0.72456  1.0000
  O2          0.91943      0.23800      0.06152  1.0000
  O2          0.35081      0.23849      0.42579  1.0000
  O2          0.91799      0.67408      0.09781  1.0000
  O2          0.78681      0.11216      0.75918  1.0000
  O2          0.67399      0.77066      0.93329  1.0000
  O2          0.11516      0.34190      0.60044  1.0000
  O2          0.26205      0.90814      0.26600  1.0000
  O2          0.57905      0.56274      0.98885  1.0000
  O2          0.46477      0.01643      0.32273  1.0000
  O2          0.01096      0.44325      0.65700  1.0000
  O2          0.43112      0.44896      0.47543  1.0000
  O2          0.57686      0.98754      0.81117  1.0000
  O2          0.05095      0.59322      0.14661  1.0000
  O2          0.58704      0.57441      0.33184  1.0000
  O2          0.01483      0.44046      0.00456  1.0000
  O2          0.44499      0.00079      0.66786  1.0000
  O3          0.43878      0.42191      0.84013  1.0000
  O2          0.99342      0.57087      0.51252  1.0000
  O2          0.61596      0.03195      0.17838  1.0000
  O2          0.60478      0.15709      0.25148  1.0000
  O2          0.86852      0.43432      0.58660  1.0000
  O3          0.57984      0.42350      0.91902  1.0000
  O2          0.43595      0.86175      0.73933  1.0000
  O2          0.16995      0.57698      0.07155  1.0000
  O2          0.44898      0.58654      0.40114  1.0000
  F           0.46679      0.86855      0.25439  1.0000
  F           0.16343      0.58878      0.58550  1.0000
  F           0.43047      0.56502      0.92132  1.0000
  F           0.59436      0.14986      0.73506  1.0000
  F           0.87355      0.42804      0.08571  1.0000
  F           0.59110      0.43010      0.40433  1.0000
