data_cif

_audit_creation_method             'generated by GULP'

_symmetry_space_group_name_H-M     'P 1'
_symmetry_Int_Tables_number        1
_symmetry_cell_setting             triclinic

_cell_length_a                       12.0539
_cell_length_b                       12.0640
_cell_length_c                       29.6393
_cell_angle_alpha                   89.9444
_cell_angle_beta                    90.1563
_cell_angle_gamma                  120.0474

loop_
_atom_site_label
_atom_site_fract_x
_atom_site_fract_y
_atom_site_fract_z
_atom_site_occupancy
  Ge          0.69960      0.37570      0.03389  1.0000
  Ge          0.63004      0.32340      0.36770  1.0000
  Si          0.68406      0.30020      0.69800  1.0000
  Ge          0.30523      0.61956      0.54735  1.0000
  Ge          0.38681      0.67967      0.87992  1.0000
  Ge          0.32621      0.70347      0.21227  1.0000
  Ge          0.38239      0.69929      0.31081  1.0000
  Si          0.32671      0.62514      0.97832  1.0000
  Ge          0.30784      0.67796      0.64605  1.0000
  Ge          0.62986      0.29742      0.79619  1.0000
  Ge          0.68697      0.38301      0.46614  1.0000
  Ge          0.70928      0.32228      0.13242  1.0000
  Si          0.53716      0.41906      0.96210  1.0000
  Si          0.58564      0.11442      0.29768  1.0000
  Si          0.89368      0.46239      0.63081  1.0000
  Si          0.48923      0.58213      0.48442  1.0000
  Si          0.42668      0.90781      0.82052  1.0000
  Si          0.10590      0.51799      0.14870  1.0000
  Si          0.42750      0.53608      0.38162  1.0000
  Si          0.11676      0.57589      0.04594  1.0000
  Si          0.46725      0.88561      0.71761  1.0000
  Ge          0.57758      0.47638      0.85699  1.0000
  Si          0.90966      0.41842      0.52817  1.0000
  Si          0.52431      0.10013      0.19489  1.0000
  Si          0.28784      0.41213      0.85030  1.0000
  Si          0.59627      0.88510      0.18553  1.0000
  Si          0.12291      0.70666      0.51998  1.0000
  Si          0.71091      0.61133      0.36068  1.0000
  Si          0.39680      0.09545      0.69580  1.0000
  Si          0.90491      0.29286      0.02631  1.0000
  Si          0.41760      0.29474      0.49340  1.0000
  Si          0.89236      0.59237      0.15834  1.0000
  Si          0.71635      0.12048      0.82705  1.0000
  Si          0.61222      0.70225      0.98286  1.0000
  Si          0.10343      0.38947      0.65202  1.0000
  Si          0.30216      0.90665      0.31839  1.0000
  Si          0.25524      0.34653      0.95300  1.0000
  Si          0.66499      0.91070      0.28770  1.0000
  Si          0.09399      0.74641      0.62231  1.0000
  Si          0.77057      0.66452      0.46300  1.0000
  Si          0.34717      0.10949      0.79821  1.0000
  Si          0.90516      0.23618      0.12847  1.0000
  Si          0.34796      0.25251      0.39127  1.0000
  Si          0.91569      0.65859      0.05587  1.0000
  Si          0.75061      0.08964      0.72455  1.0000
  Si          0.66591      0.76333      0.88061  1.0000
  Si          0.10917      0.33696      0.54982  1.0000
  Si          0.24284      0.90160      0.21610  1.0000
  Si          0.98473      0.12258      0.97369  1.0000
  Si          0.88566      0.86045      0.30679  1.0000
  Si          0.14666      0.01908      0.64122  1.0000
  Si          0.04528      0.88260      0.47258  1.0000
  Si          0.11977      0.15596      0.80516  1.0000
  Si          0.84905      0.96155      0.13804  1.0000
  Si          0.12748      0.98134      0.37188  1.0000
  Si          0.86215      0.87792      0.03711  1.0000
  Si          0.02192      0.13804      0.70464  1.0000
  Si          0.88844      0.03776      0.87325  1.0000
  Si          0.16451      0.11815      0.54036  1.0000
  Si          0.96855      0.84541      0.20598  1.0000
  O2          0.94748      0.00157      0.00611  1.0000
  O2          0.00705      0.94302      0.33911  1.0000
  O2          0.05942      0.05534      0.67192  1.0000
  O2          0.09516      0.00099      0.50621  1.0000
  O2          0.00388      0.07948      0.83897  1.0000
  O2          0.91905      0.91384      0.17205  1.0000
  O3          0.35133      0.58870      0.35389  1.0000
  O3          0.41423      0.75610      0.69033  1.0000
  O2          0.24877      0.65024      0.01793  1.0000
  O1          0.66659      0.44123      0.82289  1.0000
  O3          0.56858      0.21919      0.16385  1.0000
  O3          0.79126      0.34463      0.49666  1.0000
  O3          0.58663      0.34313      0.99193  1.0000
  O2          0.75945      0.40061      0.65742  1.0000
  O3          0.66175      0.24388      0.32496  1.0000
  O3          0.44618      0.65678      0.51612  1.0000
  O3          0.22457      0.56310      0.18019  1.0000
  O3          0.35107      0.79079      0.85265  1.0000
  O2          0.13799      0.21744      0.97485  1.0000
  O2          0.79938      0.92800      0.30690  1.0000
  O2          0.08008      0.86516      0.64159  1.0000
  O2          0.89300      0.79821      0.48000  1.0000
  O2          0.21389      0.09984      0.81398  1.0000
  O2          0.91759      0.11407      0.14487  1.0000
  O2          0.21352      0.13528      0.37213  1.0000
  O2          0.92943      0.79121      0.03643  1.0000
  O2          0.86814      0.07690      0.70348  1.0000
  O2          0.80040      0.88718      0.86555  1.0000
  O2          0.09733      0.20313      0.53304  1.0000
  O2          0.12113      0.91429      0.19921  1.0000
  O2          0.93547      0.86141      0.25688  1.0000
  O2          0.14730      0.06721      0.59105  1.0000
  O2          0.94126      0.06916      0.92385  1.0000
  O2          0.06831      0.12940      0.75424  1.0000
  O2          0.86351      0.92608      0.08732  1.0000
  O2          0.07600      0.93112      0.42155  1.0000
  O2          0.91708      0.20249      0.98848  1.0000
  O2          0.80015      0.71428      0.32276  1.0000
  O2          0.29320      0.08351      0.65821  1.0000
  O2          0.11388      0.79971      0.48243  1.0000
  O2          0.18867      0.30783      0.81409  1.0000
  O2          0.69780      0.89391      0.14795  1.0000
  O2          0.21326      0.92074      0.35629  1.0000
  O2          0.71493      0.79364      0.02083  1.0000
  O2          0.08783      0.28557      0.68984  1.0000
  O2          0.81088      0.11220      0.86407  1.0000
  O2          0.31620      0.20145      0.53101  1.0000
  O2          0.90191      0.69430      0.19595  1.0000
  O1          0.31250      0.61702      0.26277  1.0000
  O1          0.39087      0.69314      0.59813  1.0000
  O3          0.31942      0.69093      0.93313  1.0000
  O3          0.69929      0.37692      0.74276  1.0000
  O1          0.62056      0.30887      0.08250  1.0000
  O1          0.69944      0.31002      0.41565  1.0000
  O2          0.38221      0.34335      0.96728  1.0000
  O2          0.66552      0.03973      0.30237  1.0000
  O2          0.96360      0.61667      0.63648  1.0000
  O2          0.64558      0.66552      0.48189  1.0000
  O2          0.34463      0.98242      0.81743  1.0000
  O2          0.03326      0.36184      0.14631  1.0000
  O2          0.34718      0.38136      0.37722  1.0000
  O2          0.04542      0.65905      0.04107  1.0000
  O2          0.62187      0.95884      0.71161  1.0000
  O3          0.67259      0.64350      0.86221  1.0000
  O2          0.98226      0.33505      0.53099  1.0000
  O2          0.36803      0.02754      0.19727  1.0000
  O3          0.77879      0.29649      0.01358  1.0000
  O3          0.70754      0.48175      0.34754  1.0000
  O2          0.53268      0.21940      0.68209  1.0000
  O3          0.25853      0.71611      0.51548  1.0000
  O3          0.28070      0.53990      0.84724  1.0000
  O3          0.46901      0.75066      0.18036  1.0000
  O3          0.30514      0.78001      0.33125  1.0000
  O2          0.47588      0.69020      0.99595  1.0000
  O3          0.22955      0.51872      0.66544  1.0000
  O3          0.72801      0.25676      0.83066  1.0000
  O3          0.54502      0.28781      0.49855  1.0000
  O3          0.75750      0.46589      0.16409  1.0000
  O3          0.79363      0.54314      0.03280  1.0000
  O3          0.46234      0.24629      0.36715  1.0000
  O2          0.74907      0.20926      0.70094  1.0000
  O3          0.23769      0.45381      0.53157  1.0000
  O3          0.55038      0.77747      0.86154  1.0000
  O3          0.22888      0.77226      0.19755  1.0000
  O3          0.55018      0.78901      0.31127  1.0000
  O2          0.25667      0.46915      0.97513  1.0000
  O3          0.21468      0.75209      0.64618  1.0000
  O3          0.46459      0.23838      0.81601  1.0000
  O3          0.78425      0.54879      0.48141  1.0000
  O3          0.77794      0.22487      0.14792  1.0000
  O2          0.23598      0.33906      0.89906  1.0000
  O2          0.66872      0.89826      0.23356  1.0000
  O2          0.10645      0.76262      0.56816  1.0000
  O2          0.78062      0.67320      0.40800  1.0000
  O2          0.34039      0.11155      0.74281  1.0000
  O2          0.89927      0.22394      0.07353  1.0000
  O2          0.34523      0.23528      0.44537  1.0000
  O2          0.90545      0.66356      0.11009  1.0000
  O2          0.77153      0.10427      0.77835  1.0000
  O2          0.66922      0.77490      0.93604  1.0000
  O2          0.11122      0.32780      0.60480  1.0000
  O2          0.23273      0.89971      0.27108  1.0000
  O2          0.59886      0.56253      0.98340  1.0000
  O2          0.44571      0.02877      0.32064  1.0000
  O2          0.98153      0.41128      0.65353  1.0000
  O2          0.44735      0.43927      0.50241  1.0000
  O2          0.57128      0.00784      0.83774  1.0000
  O2          0.00610      0.56076      0.16712  1.0000
  O2          0.56748      0.59022      0.35872  1.0000
  O2          0.02804      0.43597      0.02405  1.0000
  O2          0.40988      0.96890      0.69454  1.0000
  O3          0.42762      0.43786      0.83669  1.0000
  O2          0.01063      0.56125      0.51012  1.0000
  O2          0.56585      0.99942      0.17644  1.0000
  O2          0.57825      0.14712      0.24576  1.0000
  O2          0.86116      0.42467      0.57887  1.0000
  O3          0.57320      0.41626      0.91103  1.0000
  O2          0.43003      0.85646      0.76980  1.0000
  O2          0.15281      0.57167      0.09767  1.0000
  O2          0.43517      0.57654      0.43357  1.0000
  F           0.42334      0.85176      0.24922  1.0000
  F           0.15638      0.56543      0.58341  1.0000
  F           0.44198      0.57972      0.91005  1.0000
  F           0.56800      0.14550      0.76615  1.0000
  F           0.85609      0.41660      0.09535  1.0000
  F           0.58983      0.43486      0.42966  1.0000
