data_cif

_audit_creation_method             'generated by GULP'

_symmetry_space_group_name_H-M     'P 1'
_symmetry_Int_Tables_number        1
_symmetry_cell_setting             triclinic

_cell_length_a                       12.0708
_cell_length_b                       12.0957
_cell_length_c                       29.6597
_cell_angle_alpha                   89.9046
_cell_angle_beta                    90.0079
_cell_angle_gamma                  120.1388

loop_
_atom_site_label
_atom_site_fract_x
_atom_site_fract_y
_atom_site_fract_z
_atom_site_occupancy
  Ge          0.69960      0.37570      0.03389  1.0000
  Ge          0.58270      0.29467      0.36796  1.0000
  Ge          0.65983      0.25173      0.69987  1.0000
  Ge          0.27115      0.58371      0.53709  1.0000
  Ge          0.38269      0.65732      0.86941  1.0000
  Ge          0.30266      0.69609      0.20021  1.0000
  Ge          0.34145      0.65682      0.29806  1.0000
  Si          0.30736      0.61906      0.96648  1.0000
  Ge          0.29453      0.64936      0.63590  1.0000
  Ge          0.62417      0.29571      0.79758  1.0000
  Si          0.66217      0.32898      0.46459  1.0000
  Ge          0.66754      0.30190      0.13210  1.0000
  Si          0.52661      0.41769      0.96672  1.0000
  Si          0.54400      0.07823      0.30263  1.0000
  Si          0.87362      0.42464      0.63123  1.0000
  Ge          0.43615      0.52780      0.46999  1.0000
  Si          0.42098      0.87626      0.80570  1.0000
  Si          0.08766      0.52030      0.13325  1.0000
  Si          0.38052      0.48161      0.36495  1.0000
  Si          0.09168      0.57476      0.03044  1.0000
  Si          0.46747      0.86113      0.70308  1.0000
  Si          0.58234      0.46983      0.86378  1.0000
  Si          0.87976      0.37632      0.52835  1.0000
  Si          0.49531      0.08843      0.19983  1.0000
  Si          0.29608      0.38814      0.84565  1.0000
  Si          0.57615      0.88463      0.17991  1.0000
  Si          0.08406      0.66462      0.51282  1.0000
  Si          0.66837      0.56505      0.34602  1.0000
  Si          0.38510      0.06263      0.68101  1.0000
  Si          0.88497      0.28925      0.01243  1.0000
  Si          0.37703      0.24222      0.47899  1.0000
  Si          0.87124      0.58876      0.14439  1.0000
  Si          0.70695      0.09395      0.81412  1.0000
  Si          0.59186      0.70051      0.97811  1.0000
  Si          0.09283      0.35990      0.64379  1.0000
  Si          0.25827      0.85921      0.31273  1.0000
  Si          0.24615      0.33940      0.94856  1.0000
  Si          0.62589      0.87993      0.28261  1.0000
  Si          0.07216      0.70844      0.61574  1.0000
  Si          0.72169      0.60993      0.44873  1.0000
  Si          0.33878      0.07307      0.78367  1.0000
  Si          0.88794      0.23854      0.11504  1.0000
  Si          0.30269      0.19885      0.37678  1.0000
  Si          0.89166      0.65780      0.04231  1.0000
  Si          0.75168      0.06353      0.71263  1.0000
  Si          0.66305      0.75250      0.87637  1.0000
  Si          0.08424      0.29787      0.54128  1.0000
  Si          0.21138      0.88510      0.21108  1.0000
  Si          0.97100      0.12015      0.96468  1.0000
  Si          0.84141      0.82084      0.29742  1.0000
  Si          0.13009      0.98198      0.63120  1.0000
  Si          0.99706      0.83134      0.46458  1.0000
  Si          0.12348      0.13264      0.79759  1.0000
  Si          0.83090      0.96483      0.13068  1.0000
  Si          0.07935      0.92833      0.36392  1.0000
  Si          0.83991      0.87902      0.02984  1.0000
  Si          0.02221      0.11217      0.69703  1.0000
  Si          0.88596      0.02401      0.86431  1.0000
  Si          0.12860      0.06931      0.52986  1.0000
  Si          0.94036      0.83590      0.19677  1.0000
  O2          0.92460      0.00278      0.99915  1.0000
  O2          0.95884      0.88918      0.33180  1.0000
  O2          0.05896      0.02787      0.66555  1.0000
  O2          0.03793      0.94713      0.49941  1.0000
  O2          0.00515      0.06399      0.83151  1.0000
  O2          0.90154      0.91863      0.16519  1.0000
  O3          0.30513      0.53216      0.33519  1.0000
  O3          0.41111      0.72972      0.67664  1.0000
  O2          0.22377      0.64866      0.00217  1.0000
  O3          0.65929      0.41991      0.83486  1.0000
  O3          0.54766      0.21689      0.17159  1.0000
  O2          0.75032      0.30077      0.49879  1.0000
  O3          0.56869      0.34083      0.99727  1.0000
  O3          0.75159      0.37735      0.66066  1.0000
  O3          0.62000      0.19655      0.33367  1.0000
  O1          0.40412      0.61883      0.50333  1.0000
  O3          0.20808      0.56558      0.16327  1.0000
  O3          0.34493      0.75841      0.83713  1.0000
  O2          0.12382      0.21262      0.96960  1.0000
  O2          0.75667      0.88897      0.30187  1.0000
  O2          0.05950      0.82839      0.63432  1.0000
  O2          0.84612      0.73455      0.46975  1.0000
  O2          0.20930      0.06604      0.80314  1.0000
  O2          0.89932      0.11813      0.13399  1.0000
  O2          0.16493      0.08144      0.36084  1.0000
  O2          0.90671      0.79289      0.02557  1.0000
  O2          0.86839      0.04277      0.69612  1.0000
  O2          0.80054      0.87099      0.86062  1.0000
  O2          0.07276      0.16493      0.52420  1.0000
  O2          0.09403      0.90475      0.19444  1.0000
  O2          0.89478      0.83684      0.24720  1.0000
  O2          0.11903      0.02606      0.58136  1.0000
  O2          0.93733      0.06539      0.91460  1.0000
  O2          0.07182      0.11483      0.74710  1.0000
  O2          0.84394      0.92289      0.08083  1.0000
  O2          0.03016      0.88645      0.41447  1.0000
  O2          0.90192      0.20153      0.97495  1.0000
  O2          0.75475      0.67087      0.30844  1.0000
  O2          0.27907      0.04254      0.64349  1.0000
  O2          0.07067      0.75443      0.47535  1.0000
  O2          0.20812      0.28306      0.80822  1.0000
  O2          0.68136      0.90255      0.14235  1.0000
  O2          0.16250      0.86302      0.35047  1.0000
  O2          0.69070      0.79834      0.01558  1.0000
  O2          0.08518      0.25811      0.68098  1.0000
  O2          0.80269      0.09014      0.85184  1.0000
  O2          0.27777      0.13789      0.51540  1.0000
  O2          0.87623      0.68872      0.18186  1.0000
  O1          0.28477      0.59419      0.24633  1.0000
  O1          0.36563      0.66452      0.58534  1.0000
  O3          0.30120      0.67215      0.91838  1.0000
  O1          0.67979      0.35621      0.74538  1.0000
  O1          0.60040      0.29302      0.08091  1.0000
  O3          0.66819      0.28025      0.41565  1.0000
  O2          0.37021      0.33618      0.96583  1.0000
  O2          0.62794      0.00655      0.30000  1.0000
  O2          0.94361      0.58049      0.63041  1.0000
  O3          0.60342      0.61861      0.46595  1.0000
  O2          0.33649      0.94717      0.80222  1.0000
  O2          0.01582      0.36459      0.13129  1.0000
  O2          0.30134      0.32672      0.36087  1.0000
  O2          0.02087      0.65818      0.02558  1.0000
  O2          0.62183      0.93442      0.69736  1.0000
  O2          0.66507      0.62468      0.86065  1.0000
  O2          0.95452      0.29644      0.52421  1.0000
  O2          0.34053      0.01429      0.19544  1.0000
  O3          0.75563      0.28726      0.00188  1.0000
  O3          0.66888      0.43742      0.33447  1.0000
  O3          0.51294      0.19040      0.66868  1.0000
  O3          0.21563      0.67042      0.50373  1.0000
  O3          0.29239      0.51503      0.83586  1.0000
  O3          0.44836      0.75612      0.16839  1.0000
  O3          0.25424      0.72658      0.31929  1.0000
  O2          0.45619      0.69573      0.98506  1.0000
  O3          0.22333      0.48889      0.65353  1.0000
  O3          0.71292      0.22790      0.81905  1.0000
  O2          0.51334      0.24603      0.48314  1.0000
  O3          0.73811      0.46029      0.15174  1.0000
  O3          0.76734      0.54366      0.02097  1.0000
  O3          0.41513      0.18808      0.35426  1.0000
  O3          0.76287      0.18610      0.68933  1.0000
  O3          0.20844      0.41557      0.52108  1.0000
  O3          0.55012      0.76282      0.85407  1.0000
  O3          0.20040      0.76202      0.18839  1.0000
  O3          0.50769      0.75352      0.30256  1.0000
  O2          0.24515      0.46372      0.96750  1.0000
  O3          0.19479      0.71523      0.63857  1.0000
  O3          0.45800      0.20034      0.80244  1.0000
  O2          0.71920      0.48298      0.46760  1.0000
  O3          0.76311      0.23138      0.13595  1.0000
  O2          0.23104      0.32569      0.89435  1.0000
  O2          0.63665      0.87761      0.22817  1.0000
  O2          0.08316      0.72625      0.56153  1.0000
  O2          0.73759      0.62358      0.39434  1.0000
  O2          0.32595      0.07192      0.72923  1.0000
  O2          0.88154      0.22335      0.06069  1.0000
  O2          0.30439      0.18637      0.43160  1.0000
  O2          0.88368      0.66072      0.09705  1.0000
  O2          0.76528      0.07698      0.76722  1.0000
  O2          0.66178      0.76556      0.93118  1.0000
  O2          0.08932      0.29327      0.59614  1.0000
  O2          0.19751      0.87195      0.26572  1.0000
  O2          0.57141      0.56024      0.98555  1.0000
  O2          0.40255      0.97380      0.32089  1.0000
  O2          0.97577      0.38629      0.65043  1.0000
  O3          0.39789      0.37880      0.49115  1.0000
  O2          0.56209      0.98201      0.82365  1.0000
  O2          0.98516      0.55831      0.15241  1.0000
  O2          0.52432      0.54444      0.34399  1.0000
  O2          0.00631      0.43413      0.00876  1.0000
  O2          0.40734      0.94056      0.67927  1.0000
  O2          0.44118      0.41215      0.84117  1.0000
  O2          0.96466      0.51888      0.50784  1.0000
  O2          0.55400      0.00656      0.17713  1.0000
  O2          0.53557      0.12379      0.25174  1.0000
  O2          0.83613      0.37469      0.57959  1.0000
  O2          0.57638      0.42513      0.91532  1.0000
  O2          0.43005      0.82937      0.75527  1.0000
  O2          0.12983      0.57322      0.08206  1.0000
  O3          0.37680      0.51956      0.41613  1.0000
  F           0.39080      0.83230      0.24084  1.0000
  F           0.12875      0.52606      0.57401  1.0000
  F           0.43670      0.56963      0.90506  1.0000
  F           0.57244      0.11775      0.74160  1.0000
  F           0.83845      0.42487      0.07345  1.0000
  F           0.52929      0.38095      0.40532  1.0000
