data_cif

_audit_creation_method             'generated by GULP'

_symmetry_space_group_name_H-M     'P 1'
_symmetry_Int_Tables_number        1
_symmetry_cell_setting             triclinic

_cell_length_a                       12.0766
_cell_length_b                       12.0645
_cell_length_c                       29.6694
_cell_angle_alpha                   90.7600
_cell_angle_beta                    89.9092
_cell_angle_gamma                  120.0277

loop_
_atom_site_label
_atom_site_fract_x
_atom_site_fract_y
_atom_site_fract_z
_atom_site_occupancy
  Ge          0.69960      0.37570      0.03389  1.0000
  Ge          0.61710      0.32881      0.36653  1.0000
  Ge          0.68488      0.31557      0.69671  1.0000
  Ge          0.31315      0.62945      0.52551  1.0000
  Si          0.36399      0.67594      0.85834  1.0000
  Ge          0.32277      0.69718      0.19052  1.0000
  Ge          0.38521      0.70830      0.28912  1.0000
  Ge          0.32075      0.60943      0.95570  1.0000
  Ge          0.29120      0.67862      0.62391  1.0000
  Ge          0.61407      0.28368      0.79446  1.0000
  Si          0.68530      0.37825      0.46399  1.0000
  Ge          0.69876      0.32043      0.13219  1.0000
  Si          0.51410      0.40885      0.97024  1.0000
  Si          0.58378      0.10449      0.30547  1.0000
  Si          0.90114      0.48884      0.63169  1.0000
  Si          0.47637      0.58429      0.45493  1.0000
  Si          0.41235      0.88957      0.79364  1.0000
  Si          0.11287      0.53114      0.11989  1.0000
  Si          0.42291      0.52539      0.35200  1.0000
  Si          0.09823      0.57368      0.01710  1.0000
  Si          0.46806      0.89627      0.69092  1.0000
  Ge          0.56393      0.45132      0.86482  1.0000
  Si          0.89882      0.42845      0.52956  1.0000
  Si          0.53617      0.11395      0.20261  1.0000
  Si          0.27856      0.38921      0.84943  1.0000
  Si          0.61058      0.90429      0.18270  1.0000
  Si          0.10929      0.71232      0.51327  1.0000
  Si          0.70914      0.59666      0.34039  1.0000
  Si          0.39980      0.11365      0.68188  1.0000
  Si          0.88163      0.28626      0.00774  1.0000
  Si          0.40162      0.30200      0.47288  1.0000
  Si          0.90574      0.60783      0.14035  1.0000
  Si          0.69872      0.09544      0.81279  1.0000
  Si          0.58881      0.69843      0.98148  1.0000
  Si          0.10581      0.40687      0.64741  1.0000
  Si          0.29705      0.89069      0.31520  1.0000
  Si          0.23133      0.32966      0.95208  1.0000
  Si          0.66641      0.90547      0.28500  1.0000
  Si          0.10107      0.77064      0.61525  1.0000
  Si          0.75638      0.65877      0.44296  1.0000
  Si          0.33064      0.09237      0.78385  1.0000
  Si          0.90836      0.24742      0.10977  1.0000
  Si          0.33850      0.24284      0.37076  1.0000
  Si          0.90020      0.65728      0.03817  1.0000
  Si          0.75002      0.09598      0.71012  1.0000
  Si          0.64400      0.73894      0.87885  1.0000
  Si          0.09692      0.34508      0.54450  1.0000
  Si          0.25300      0.91067      0.21307  1.0000
  Si          0.95939      0.10824      0.96144  1.0000
  Si          0.88445      0.84978      0.29395  1.0000
  Si          0.15346      0.04366      0.62852  1.0000
  Si          0.02947      0.88188      0.46227  1.0000
  Si          0.10477      0.13963      0.79642  1.0000
  Si          0.85955      0.97758      0.12923  1.0000
  Si          0.12004      0.96863      0.36194  1.0000
  Si          0.84405      0.87494      0.02879  1.0000
  Si          0.02458      0.15319      0.69518  1.0000
  Si          0.86720      0.01139      0.86150  1.0000
  Si          0.15463      0.12752      0.52678  1.0000
  Si          0.98227      0.86028      0.19363  1.0000
  O2          0.91283      0.99321      0.99577  1.0000
  O2          0.00227      0.91786      0.32807  1.0000
  O2          0.07001      0.08457      0.65894  1.0000
  O2          0.06947      0.00172      0.49616  1.0000
  O2          0.98051      0.04939      0.82565  1.0000
  O2          0.94383      0.94215      0.16158  1.0000
  O3          0.34781      0.57067      0.32203  1.0000
  O3          0.42443      0.77696      0.65939  1.0000
  O3          0.21592      0.64802      0.98577  1.0000
  O1          0.65033      0.40904      0.83235  1.0000
  O3          0.58810      0.24131      0.17510  1.0000
  O2          0.76768      0.35203      0.50140  1.0000
  O3          0.55913      0.33722      0.00259  1.0000
  O3          0.77467      0.44054      0.65968  1.0000
  O3          0.65730      0.22496      0.33690  1.0000
  O3          0.42848      0.66192      0.48472  1.0000
  O3          0.24148      0.58409      0.14797  1.0000
  O2          0.33716      0.75784      0.82102  1.0000
  O2          0.11147      0.19404      0.96818  1.0000
  O2          0.80098      0.91848      0.30160  1.0000
  O2          0.08454      0.89024      0.63175  1.0000
  O2          0.87661      0.78675      0.46478  1.0000
  O2          0.19573      0.07773      0.80041  1.0000
  O2          0.92558      0.13120      0.12908  1.0000
  O2          0.20145      0.12122      0.35569  1.0000
  O2          0.91240      0.79097      0.02146  1.0000
  O2          0.87165      0.08745      0.69043  1.0000
  O2          0.77154      0.85986      0.85804  1.0000
  O2          0.08742      0.21414      0.52488  1.0000
  O2          0.13590      0.92682      0.19375  1.0000
  O2          0.93415      0.86554      0.24337  1.0000
  O2          0.15534      0.08560      0.57748  1.0000
  O2          0.92725      0.05237      0.91090  1.0000
  O2          0.06383      0.13528      0.74468  1.0000
  O2          0.86070      0.92502      0.07982  1.0000
  O2          0.06855      0.93549      0.41260  1.0000
  O2          0.89046      0.19138      0.97036  1.0000
  O2          0.80044      0.69867      0.30330  1.0000
  O2          0.30032      0.10924      0.64414  1.0000
  O2          0.09858      0.80174      0.47517  1.0000
  O2          0.17688      0.28742      0.81248  1.0000
  O2          0.71349      0.91596      0.14522  1.0000
  O2          0.20557      0.90286      0.35277  1.0000
  O2          0.69310      0.79115      0.01884  1.0000
  O2          0.09061      0.30412      0.68494  1.0000
  O2          0.78727      0.08124      0.85022  1.0000
  O2          0.30176      0.20991      0.51088  1.0000
  O2          0.92026      0.71303      0.17814  1.0000
  O1          0.31184      0.61855      0.23893  1.0000
  O1          0.38569      0.69352      0.57562  1.0000
  O3          0.30925      0.68772      0.90546  1.0000
  O1          0.69438      0.38388      0.74761  1.0000
  O1          0.61465      0.30555      0.08458  1.0000
  O3          0.69150      0.31518      0.41804  1.0000
  O2          0.35753      0.32751      0.96880  1.0000
  O2          0.66836      0.03304      0.30355  1.0000
  O2          0.97373      0.64377      0.63266  1.0000
  O2          0.63110      0.66325      0.45896  1.0000
  O2          0.32999      0.96199      0.79844  1.0000
  O2          0.03740      0.37675      0.12455  1.0000
  O2          0.33723      0.36900      0.35374  1.0000
  O2          0.02643      0.65799      0.01995  1.0000
  O2          0.62397      0.96885      0.69257  1.0000
  O3          0.65274      0.61853      0.86347  1.0000
  O2          0.96891      0.34392      0.52717  1.0000
  O2          0.38146      0.03861      0.19834  1.0000
  O3          0.74738      0.27888      0.00241  1.0000
  O3          0.71489      0.46913      0.33383  1.0000
  O3          0.52864      0.24608      0.67466  1.0000
  O3          0.23843      0.71150      0.50432  1.0000
  O2          0.28536      0.52552      0.84078  1.0000
  O3          0.48051      0.77694      0.17023  1.0000
  O3          0.28917      0.75639      0.32087  1.0000
  O3          0.46162      0.70398      0.98939  1.0000
  O3          0.23805      0.53441      0.65526  1.0000
  O3          0.70173      0.22459      0.82450  1.0000
  O2          0.53762      0.31027      0.48318  1.0000
  O3          0.77972      0.47871      0.15345  1.0000
  O3          0.77143      0.54116      0.01921  1.0000
  O3          0.45092      0.22771      0.35024  1.0000
  O3          0.75712      0.22162      0.69048  1.0000
  O3          0.22043      0.46225      0.52360  1.0000
  O2          0.51890      0.73563      0.85752  1.0000
  O3          0.24546      0.78729      0.19017  1.0000
  O3          0.55135      0.77801      0.30416  1.0000
  O3          0.21925      0.44449      0.97256  1.0000
  O3          0.22649      0.78205      0.63602  1.0000
  O3          0.44501      0.21481      0.80672  1.0000
  O2          0.75426      0.53487      0.46367  1.0000
  O3          0.78714      0.24127      0.13332  1.0000
  O2          0.21679      0.32519      0.89705  1.0000
  O2          0.67298      0.89969      0.23015  1.0000
  O2          0.10581      0.77860      0.56043  1.0000
  O2          0.77153      0.66706      0.38904  1.0000
  O2          0.32891      0.10353      0.72913  1.0000
  O2          0.89509      0.22872      0.05569  1.0000
  O2          0.33687      0.23219      0.42594  1.0000
  O2          0.89755      0.66765      0.09312  1.0000
  O2          0.76448      0.09938      0.76433  1.0000
  O2          0.65353      0.75986      0.93302  1.0000
  O2          0.09960      0.33859      0.59881  1.0000
  O2          0.23732      0.90166      0.26727  1.0000
  O2          0.56393      0.55480      0.98782  1.0000
  O2          0.44225      0.00453      0.32421  1.0000
  O2          0.98907      0.43656      0.65355  1.0000
  O2          0.41915      0.44337      0.47700  1.0000
  O2          0.55355      0.97456      0.81532  1.0000
  O2          0.02820      0.58737      0.14255  1.0000
  O2          0.56459      0.56868      0.33258  1.0000
  O2          0.99567      0.43074      0.99895  1.0000
  O2          0.42820      0.99823      0.67308  1.0000
  O3          0.41454      0.40379      0.84125  1.0000
  O2          0.99037      0.56722      0.50816  1.0000
  O2          0.58937      0.02618      0.18026  1.0000
  O2          0.57682      0.14911      0.25463  1.0000
  O2          0.85955      0.43704      0.58052  1.0000
  O3          0.56002      0.40477      0.91945  1.0000
  O2          0.41483      0.85187      0.74160  1.0000
  O2          0.14599      0.56894      0.06806  1.0000
  O2          0.43271      0.57837      0.40365  1.0000
  F           0.43581      0.85404      0.25226  1.0000
  F           0.14881      0.58598      0.58489  1.0000
  F           0.41073      0.55286      0.92104  1.0000
  F           0.56411      0.14659      0.75231  1.0000
  F           0.84843      0.42762      0.07170  1.0000
  F           0.56528      0.42358      0.40092  1.0000
