data_cif

_audit_creation_method             'generated by GULP'

_symmetry_space_group_name_H-M     'P 1'
_symmetry_Int_Tables_number        1
_symmetry_cell_setting             triclinic

_cell_length_a                       12.0495
_cell_length_b                       12.0588
_cell_length_c                       29.6300
_cell_angle_alpha                   89.9476
_cell_angle_beta                    90.1813
_cell_angle_gamma                  119.9715

loop_
_atom_site_label
_atom_site_fract_x
_atom_site_fract_y
_atom_site_fract_z
_atom_site_occupancy
  Ge          0.69960      0.37570      0.03389  1.0000
  Ge          0.61413      0.31679      0.36492  1.0000
  Ge          0.67949      0.29669      0.70023  1.0000
  Ge          0.29662      0.62045      0.51902  1.0000
  Ge          0.37780      0.67303      0.85159  1.0000
  Si          0.31440      0.68668      0.18717  1.0000
  Ge          0.38040      0.70371      0.28495  1.0000
  Ge          0.32203      0.61998      0.95051  1.0000
  Ge          0.29649      0.67796      0.61762  1.0000
  Ge          0.62151      0.29440      0.79895  1.0000
  Ge          0.67281      0.37435      0.46355  1.0000
  Si          0.68950      0.31307      0.13223  1.0000
  Si          0.51245      0.41491      0.97332  1.0000
  Si          0.57787      0.09430      0.30253  1.0000
  Si          0.90061      0.48246      0.63759  1.0000
  Si          0.46004      0.57639      0.44846  1.0000
  Si          0.42069      0.88087      0.78149  1.0000
  Si          0.10670      0.52567      0.11844  1.0000
  Si          0.41499      0.51458      0.34561  1.0000
  Ge          0.09303      0.56805      0.01350  1.0000
  Si          0.48417      0.90186      0.67885  1.0000
  Si          0.57575      0.45560      0.87051  1.0000
  Si          0.88113      0.41969      0.53479  1.0000
  Si          0.52954      0.10308      0.19960  1.0000
  Si          0.29331      0.38327      0.84825  1.0000
  Si          0.59986      0.89210      0.18051  1.0000
  Si          0.08961      0.70236      0.51333  1.0000
  Si          0.70231      0.58600      0.33752  1.0000
  Si          0.41075      0.11637      0.67134  1.0000
  Si          0.87057      0.27819      0.00564  1.0000
  Si          0.38457      0.29358      0.47010  1.0000
  Si          0.89532      0.59782      0.13759  1.0000
  Si          0.70325      0.08719      0.80432  1.0000
  Si          0.58840      0.70413      0.97976  1.0000
  Si          0.11605      0.40958      0.64588  1.0000
  Si          0.29041      0.88098      0.31245  1.0000
  Si          0.23133      0.33591      0.95071  1.0000
  Si          0.66021      0.89443      0.28263  1.0000
  Si          0.09954      0.76322      0.61567  1.0000
  Si          0.74384      0.65621      0.43957  1.0000
  Si          0.34007      0.08417      0.77339  1.0000
  Si          0.90014      0.24404      0.10880  1.0000
  Si          0.33232      0.23405      0.36773  1.0000
  Si          0.89271      0.65522      0.03562  1.0000
  Si          0.76456      0.09952      0.70200  1.0000
  Si          0.65849      0.74047      0.87758  1.0000
  Si          0.08510      0.33938      0.54373  1.0000
  Si          0.24785      0.90003      0.20966  1.0000
  Si          0.95712      0.11037      0.95884  1.0000
  Si          0.87964      0.83953      0.29107  1.0000
  Si          0.15625      0.03817      0.62480  1.0000
  Si          0.01439      0.87729      0.45956  1.0000
  Si          0.11946      0.13388      0.79340  1.0000
  Si          0.84929      0.97080      0.12766  1.0000
  Si          0.11477      0.95962      0.35915  1.0000
  Si          0.84162      0.87821      0.02677  1.0000
  Si          0.03926      0.15611      0.69272  1.0000
  Si          0.87834      0.01119      0.85801  1.0000
  Si          0.13533      0.11900      0.52422  1.0000
  Si          0.97387      0.84792      0.19042  1.0000
  O2          0.91635      0.99175      0.99170  1.0000
  O2          0.99578      0.90751      0.32565  1.0000
  O2          0.08859      0.08769      0.65890  1.0000
  O2          0.05152      0.99749      0.49218  1.0000
  O2          0.99786      0.04872      0.82508  1.0000
  O2          0.93507      0.93221      0.15872  1.0000
  O3          0.34105      0.55885      0.31377  1.0000
  O3          0.44064      0.78426      0.64709  1.0000
  O1          0.21800      0.65626      0.98007  1.0000
  O3          0.65056      0.40021      0.84352  1.0000
  O2          0.58510      0.23422      0.17125  1.0000
  O3          0.75166      0.34412      0.50731  1.0000
  O3          0.55361      0.33961      0.00580  1.0000
  O3          0.78381      0.43912      0.66975  1.0000
  O3          0.65232      0.21396      0.33346  1.0000
  O3          0.40549      0.65179      0.47548  1.0000
  O2          0.23503      0.58054      0.14874  1.0000
  O3          0.34610      0.74917      0.80752  1.0000
  O2          0.10758      0.20420      0.96773  1.0000
  O2          0.79674      0.90918      0.29781  1.0000
  O2          0.08943      0.88621      0.63257  1.0000
  O2          0.86047      0.79094      0.45866  1.0000
  O2          0.20538      0.06585      0.79240  1.0000
  O2          0.90738      0.12391      0.13052  1.0000
  O2          0.19843      0.11146      0.35094  1.0000
  O2          0.90529      0.79058      0.02071  1.0000
  O2          0.88715      0.08904      0.68497  1.0000
  O2          0.79337      0.85716      0.85871  1.0000
  O2          0.06705      0.20473      0.52469  1.0000
  O2          0.12749      0.90774      0.18823  1.0000
  O2          0.93314      0.85746      0.24070  1.0000
  O2          0.13609      0.06843      0.57393  1.0000
  O2          0.93234      0.06422      0.90734  1.0000
  O2          0.06991      0.13730      0.74372  1.0000
  O2          0.85965      0.93340      0.07697  1.0000
  O2          0.06662      0.93010      0.41020  1.0000
  O2          0.87494      0.17919      0.96939  1.0000
  O2          0.79505      0.68793      0.29996  1.0000
  O2          0.30849      0.10788      0.63377  1.0000
  O2          0.07462      0.79141      0.47561  1.0000
  O2          0.20426      0.27850      0.81077  1.0000
  O2          0.70062      0.90009      0.14250  1.0000
  O2          0.19813      0.89142      0.34978  1.0000
  O2          0.68992      0.79863      0.01711  1.0000
  O2          0.10813      0.30793      0.68349  1.0000
  O2          0.79135      0.07051      0.84211  1.0000
  O2          0.28098      0.20458      0.50784  1.0000
  O2          0.90577      0.69938      0.17572  1.0000
  O3          0.30566      0.61706      0.23321  1.0000
  O1          0.38055      0.68914      0.56681  1.0000
  O1          0.31039      0.69090      0.89892  1.0000
  O1          0.69147      0.37966      0.75153  1.0000
  O3          0.61844      0.30635      0.08654  1.0000
  O1          0.68606      0.30375      0.41590  1.0000
  O2          0.35588      0.33381      0.97013  1.0000
  O2          0.66277      0.02283      0.30021  1.0000
  O2          0.97360      0.63866      0.63495  1.0000
  O2          0.61460      0.65621      0.45373  1.0000
  O2          0.33989      0.95444      0.78710  1.0000
  O2          0.02999      0.37077      0.12444  1.0000
  O2          0.33044      0.35850      0.34857  1.0000
  O3          0.02115      0.66292      0.01862  1.0000
  O2          0.64033      0.97437      0.68202  1.0000
  O2          0.65786      0.61003      0.86485  1.0000
  O2          0.95500      0.33881      0.53023  1.0000
  O2          0.37487      0.03041      0.19432  1.0000
  O3          0.73518      0.27028      0.00197  1.0000
  O3          0.71085      0.45943      0.33302  1.0000
  O3          0.53746      0.25165      0.66758  1.0000
  O3          0.21525      0.69849      0.49963  1.0000
  O3          0.29911      0.51289      0.83324  1.0000
  O2          0.46390      0.76558      0.16932  1.0000
  O3          0.28202      0.74629      0.31806  1.0000
  O3          0.46331      0.71517      0.98362  1.0000
  O3          0.25093      0.53671      0.65050  1.0000
  O3          0.69926      0.21265      0.81828  1.0000
  O3          0.51445      0.29749      0.48368  1.0000
  O2          0.77121      0.46162      0.15029  1.0000
  O3          0.76508      0.53961      0.01544  1.0000
  O3          0.44828      0.22059      0.34955  1.0000
  O3          0.77789      0.22960      0.68464  1.0000
  O3          0.20495      0.45305      0.51904  1.0000
  O3          0.54514      0.74645      0.85219  1.0000
  O2          0.24935      0.77794      0.18852  1.0000
  O3          0.54609      0.76721      0.30252  1.0000
  O3          0.22050      0.45415      0.96811  1.0000
  O3          0.22911      0.77600      0.63361  1.0000
  O3          0.45390      0.20425      0.79811  1.0000
  O3          0.75093      0.54200      0.46361  1.0000
  O2          0.77772      0.24537      0.12967  1.0000
  O2          0.22209      0.32614      0.89561  1.0000
  O2          0.66322      0.88521      0.22741  1.0000
  O2          0.09923      0.77249      0.56065  1.0000
  O2          0.76062      0.65947      0.38546  1.0000
  O2          0.33739      0.09956      0.71933  1.0000
  O2          0.89272      0.22807      0.05470  1.0000
  O2          0.32356      0.22394      0.42273  1.0000
  O2          0.88013      0.65632      0.09093  1.0000
  O2          0.77340      0.09756      0.75703  1.0000
  O2          0.66076      0.75963      0.93151  1.0000
  O2          0.10166      0.33722      0.59779  1.0000
  O2          0.23190      0.89308      0.26372  1.0000
  O2          0.55527      0.55904      0.99011  1.0000
  O2          0.43539      0.99601      0.32160  1.0000
  O2          0.00205      0.44038      0.65522  1.0000
  O2          0.40505      0.43671      0.47173  1.0000
  O2          0.55983      0.96483      0.80545  1.0000
  O2          0.02214      0.58514      0.13812  1.0000
  O2          0.55716      0.55382      0.32776  1.0000
  O3          0.98414      0.41843      0.99233  1.0000
  O2          0.44317      0.00387      0.66109  1.0000
  O2          0.43574      0.40168      0.84743  1.0000
  O2          0.96696      0.55931      0.51170  1.0000
  O2          0.58451      0.01736      0.17768  1.0000
  O2          0.56949      0.13966      0.25125  1.0000
  O2          0.85026      0.42816      0.58688  1.0000
  O2          0.56734      0.41788      0.92278  1.0000
  O2          0.42899      0.85205      0.72932  1.0000
  O3          0.14753      0.55989      0.06760  1.0000
  O2          0.42129      0.56922      0.39633  1.0000
  F           0.43590      0.85187      0.25203  1.0000
  F           0.14654      0.58160      0.58206  1.0000
  F           0.41458      0.56196      0.91637  1.0000
  F           0.58252      0.14610      0.73549  1.0000
  F           0.85359      0.43188      0.06493  1.0000
  F           0.56232      0.41432      0.40134  1.0000
