data_cif

_audit_creation_method             'generated by GULP'

_symmetry_space_group_name_H-M     'P 1'
_symmetry_Int_Tables_number        1
_symmetry_cell_setting             triclinic

_cell_length_a                       12.0770
_cell_length_b                       12.0827
_cell_length_c                       29.6985
_cell_angle_alpha                   89.9835
_cell_angle_beta                    90.0514
_cell_angle_gamma                  119.9033

loop_
_atom_site_label
_atom_site_fract_x
_atom_site_fract_y
_atom_site_fract_z
_atom_site_occupancy
  Ge          0.69960      0.37570      0.03389  1.0000
  Ge          0.57772      0.29509      0.36869  1.0000
  Ge          0.65804      0.25595      0.70268  1.0000
  Ge          0.25775      0.57575      0.53551  1.0000
  Ge          0.36940      0.65521      0.87111  1.0000
  Ge          0.29514      0.69161      0.20283  1.0000
  Ge          0.33774      0.66052      0.30080  1.0000
  Ge          0.30294      0.61320      0.96965  1.0000
  Ge          0.29563      0.65294      0.63326  1.0000
  Si          0.62364      0.30089      0.79924  1.0000
  Ge          0.65316      0.33511      0.46675  1.0000
  Ge          0.65810      0.29734      0.13158  1.0000
  Si          0.52660      0.41675      0.96571  1.0000
  Si          0.53731      0.08057      0.30127  1.0000
  Si          0.87448      0.43311      0.63712  1.0000
  Si          0.43435      0.53565      0.46960  1.0000
  Ge          0.42478      0.87690      0.80455  1.0000
  Si          0.07645      0.51342      0.13827  1.0000
  Si          0.37693      0.48518      0.36693  1.0000
  Si          0.08946      0.57432      0.03575  1.0000
  Si          0.47125      0.86768      0.69964  1.0000
  Si          0.57594      0.47078      0.86296  1.0000
  Si          0.86610      0.37537      0.53442  1.0000
  Si          0.48465      0.08330      0.19857  1.0000
  Si          0.28812      0.38705      0.84729  1.0000
  Si          0.56642      0.87863      0.18065  1.0000
  Si          0.06970      0.66058      0.51494  1.0000
  Si          0.66243      0.56772      0.34770  1.0000
  Si          0.38760      0.07151      0.68079  1.0000
  Si          0.88810      0.29013      0.01448  1.0000
  Si          0.36669      0.25107      0.48051  1.0000
  Si          0.86003      0.58240      0.14759  1.0000
  Si          0.71025      0.10261      0.81368  1.0000
  Si          0.59186      0.70076      0.97812  1.0000
  Si          0.09349      0.36694      0.64745  1.0000
  Si          0.25286      0.86280      0.31316  1.0000
  Si          0.24313      0.33158      0.95009  1.0000
  Si          0.62018      0.88134      0.28331  1.0000
  Si          0.07283      0.71381      0.61757  1.0000
  Si          0.71548      0.61877      0.45034  1.0000
  Si          0.34253      0.07974      0.78342  1.0000
  Si          0.87946      0.23371      0.11704  1.0000
  Si          0.29631      0.20264      0.37879  1.0000
  Si          0.88784      0.65609      0.04605  1.0000
  Si          0.75389      0.07209      0.71156  1.0000
  Si          0.65469      0.75375      0.87574  1.0000
  Si          0.06925      0.29509      0.54586  1.0000
  Si          0.20230      0.88058      0.21138  1.0000
  Si          0.96929      0.11592      0.96551  1.0000
  Si          0.83614      0.82290      0.29916  1.0000
  Si          0.13153      0.98819      0.63249  1.0000
  Si          0.98923      0.83491      0.46592  1.0000
  Si          0.12118      0.13347      0.79917  1.0000
  Si          0.82093      0.95929      0.13212  1.0000
  Si          0.07463      0.93208      0.36531  1.0000
  Si          0.83902      0.87778      0.03143  1.0000
  Si          0.02405      0.11877      0.69869  1.0000
  Si          0.88297      0.02677      0.86434  1.0000
  Si          0.11857      0.07321      0.53202  1.0000
  Si          0.93065      0.83074      0.19852  1.0000
  O2          0.92300      0.00009      0.00044  1.0000
  O2          0.95267      0.89221      0.33382  1.0000
  O2          0.06301      0.03697      0.66683  1.0000
  O2          0.03663      0.95232      0.50015  1.0000
  O2          0.00534      0.05875      0.83400  1.0000
  O2          0.89009      0.91137      0.16658  1.0000
  O3          0.30121      0.53880      0.33932  1.0000
  O3          0.42023      0.74125      0.67026  1.0000
  O3          0.22108      0.64967      0.00958  1.0000
  O2          0.65149      0.41690      0.83351  1.0000
  O3          0.53470      0.20942      0.16930  1.0000
  O3          0.73858      0.29973      0.50578  1.0000
  O3          0.57327      0.34173      0.99519  1.0000
  O3          0.75603      0.39069      0.66808  1.0000
  O3          0.61283      0.20039      0.33152  1.0000
  O3          0.38961      0.61141      0.49948  1.0000
  O3          0.19577      0.55634      0.16865  1.0000
  O1          0.33406      0.75291      0.83752  1.0000
  O2          0.12275      0.19926      0.96872  1.0000
  O2          0.75152      0.89171      0.30250  1.0000
  O2          0.06364      0.83531      0.63685  1.0000
  O2          0.83612      0.74989      0.46955  1.0000
  O2          0.21786      0.07942      0.80429  1.0000
  O2          0.88791      0.11207      0.13646  1.0000
  O2          0.15952      0.08518      0.36230  1.0000
  O2          0.90810      0.79332      0.02961  1.0000
  O2          0.87107      0.05153      0.69573  1.0000
  O2          0.78757      0.87529      0.85865  1.0000
  O2          0.05057      0.15857      0.52924  1.0000
  O2          0.08352      0.89753      0.19448  1.0000
  O2          0.89083      0.83758      0.24924  1.0000
  O2          0.11500      0.02554      0.58240  1.0000
  O2          0.92588      0.05962      0.91585  1.0000
  O2          0.06600      0.11174      0.74918  1.0000
  O2          0.83683      0.92209      0.08192  1.0000
  O2          0.02874      0.88844      0.41586  1.0000
  O2          0.90826      0.20421      0.97707  1.0000
  O2          0.74937      0.67336      0.31035  1.0000
  O2          0.28144      0.05184      0.64343  1.0000
  O2          0.05190      0.74806      0.47748  1.0000
  O2          0.19838      0.28392      0.80990  1.0000
  O2          0.67096      0.89520      0.14309  1.0000
  O2          0.15819      0.86800      0.35081  1.0000
  O2          0.69312      0.79519      0.01537  1.0000
  O2          0.08940      0.26707      0.68506  1.0000
  O2          0.81444      0.10728      0.84997  1.0000
  O2          0.26655      0.15595      0.51797  1.0000
  O2          0.86373      0.68195      0.18515  1.0000
  O1          0.28060      0.59368      0.24975  1.0000
  O1          0.35883      0.65977      0.58169  1.0000
  O1          0.28849      0.66915      0.91913  1.0000
  O3          0.67267      0.35576      0.75037  1.0000
  O1          0.59621      0.29183      0.07971  1.0000
  O1          0.66105      0.27793      0.41532  1.0000
  O2          0.37082      0.33103      0.96487  1.0000
  O2          0.62148      0.00878      0.29946  1.0000
  O2          0.94607      0.58877      0.63462  1.0000
  O2          0.58999      0.61957      0.46762  1.0000
  O3          0.33391      0.95303      0.80082  1.0000
  O2          0.00470      0.35794      0.13549  1.0000
  O2          0.29641      0.33102      0.36232  1.0000
  O2          0.01642      0.65545      0.03025  1.0000
  O2          0.62600      0.94320      0.69550  1.0000
  O2          0.65598      0.62544      0.85882  1.0000
  O2          0.94008      0.29475      0.53021  1.0000
  O2          0.33009      0.00910      0.19497  1.0000
  O3          0.75988      0.28944      0.00268  1.0000
  O3          0.66442      0.44040      0.33685  1.0000
  O3          0.51523      0.19976      0.66934  1.0000
  O3          0.19836      0.66163      0.50357  1.0000
  O3          0.28287      0.51288      0.83794  1.0000
  O3          0.43895      0.74905      0.17029  1.0000
  O3          0.25057      0.73134      0.32100  1.0000
  O3          0.46289      0.70217      0.98767  1.0000
  O3          0.22567      0.49575      0.65430  1.0000
  O2          0.70636      0.23500      0.81779  1.0000
  O3          0.49567      0.24748      0.48724  1.0000
  O3          0.72672      0.45388      0.15297  1.0000
  O3          0.76493      0.54422      0.02320  1.0000
  O3          0.40952      0.19192      0.35686  1.0000
  O3          0.76487      0.19538      0.68915  1.0000
  O3          0.19206      0.40776      0.52331  1.0000
  O3          0.53745      0.76036      0.85537  1.0000
  O3          0.19244      0.75670      0.18978  1.0000
  O3          0.50356      0.75691      0.30456  1.0000
  O3          0.23662      0.44761      0.97273  1.0000
  O3          0.19866      0.72187      0.63777  1.0000
  O2          0.46965      0.20410      0.80215  1.0000
  O3          0.72399      0.50109      0.47039  1.0000
  O3          0.75225      0.22530      0.13595  1.0000
  O2          0.22589      0.32470      0.89593  1.0000
  O2          0.62844      0.87480      0.22897  1.0000
  O2          0.07623      0.72752      0.56320  1.0000
  O2          0.72860      0.62903      0.39599  1.0000
  O2          0.32901      0.08159      0.72910  1.0000
  O2          0.88035      0.22232      0.06268  1.0000
  O2          0.29437      0.19078      0.43341  1.0000
  O2          0.87574      0.65664      0.10061  1.0000
  O2          0.76583      0.08578      0.76633  1.0000
  O2          0.65892      0.76366      0.93053  1.0000
  O2          0.08190      0.29418      0.60045  1.0000
  O2          0.19020      0.87118      0.26603  1.0000
  O2          0.56526      0.55732      0.98484  1.0000
  O2          0.39658      0.97855      0.32021  1.0000
  O2          0.97854      0.39593      0.65538  1.0000
  O2          0.39659      0.39515      0.48867  1.0000
  O3          0.57357      0.98714      0.82588  1.0000
  O2          0.97268      0.55061      0.15685  1.0000
  O2          0.51756      0.54379      0.34423  1.0000
  O2          0.00949      0.43474      0.01211  1.0000
  O2          0.40859      0.94845      0.67857  1.0000
  O2          0.43359      0.41307      0.84244  1.0000
  O2          0.94826      0.51628      0.51199  1.0000
  O2          0.54259      0.99950      0.17680  1.0000
  O2          0.52738      0.12270      0.25008  1.0000
  O2          0.82964      0.37961      0.58621  1.0000
  O2          0.57698      0.42893      0.91419  1.0000
  O3          0.43327      0.82635      0.75077  1.0000
  O2          0.12142      0.56835      0.08775  1.0000
  O2          0.38143      0.52535      0.41867  1.0000
  F           0.38362      0.83081      0.24197  1.0000
  F           0.12108      0.52688      0.57579  1.0000
  F           0.42624      0.57026      0.90832  1.0000
  F           0.57164      0.11629      0.73997  1.0000
  F           0.83433      0.42271      0.07517  1.0000
  F           0.52848      0.38328      0.40867  1.0000
