data_cif

_audit_creation_method             'generated by GULP'

_symmetry_space_group_name_H-M     'P 1'
_symmetry_Int_Tables_number        1
_symmetry_cell_setting             triclinic

_cell_length_a                       12.0610
_cell_length_b                       12.0692
_cell_length_c                       29.6710
_cell_angle_alpha                   90.1222
_cell_angle_beta                    90.0458
_cell_angle_gamma                  119.9717

loop_
_atom_site_label
_atom_site_fract_x
_atom_site_fract_y
_atom_site_fract_z
_atom_site_occupancy
  Ge          0.69960      0.37570      0.03389  1.0000
  Ge          0.62121      0.32267      0.36885  1.0000
  Si          0.67806      0.30581      0.70095  1.0000
  Ge          0.29408      0.61890      0.54657  1.0000
  Ge          0.37318      0.67488      0.88259  1.0000
  Ge          0.31699      0.70101      0.21423  1.0000
  Ge          0.37424      0.69963      0.31254  1.0000
  Ge          0.32090      0.61901      0.98135  1.0000
  Ge          0.30427      0.68245      0.64485  1.0000
  Ge          0.61674      0.29782      0.79924  1.0000
  Ge          0.67709      0.38323      0.46735  1.0000
  Ge          0.69848      0.31821      0.13253  1.0000
  Si          0.53876      0.42229      0.96232  1.0000
  Si          0.57549      0.11414      0.29798  1.0000
  Si          0.88811      0.46670      0.63360  1.0000
  Si          0.47983      0.58153      0.48474  1.0000
  Ge          0.42576      0.90524      0.82059  1.0000
  Si          0.09236      0.51276      0.15350  1.0000
  Si          0.41848      0.53449      0.38205  1.0000
  Si          0.11270      0.57610      0.05098  1.0000
  Si          0.46823      0.88963      0.71574  1.0000
  Si          0.57886      0.48577      0.85963  1.0000
  Si          0.89748      0.41865      0.53090  1.0000
  Si          0.51343      0.09711      0.19527  1.0000
  Si          0.28922      0.40897      0.85329  1.0000
  Si          0.58581      0.88168      0.18665  1.0000
  Si          0.11105      0.70616      0.52113  1.0000
  Si          0.70165      0.61034      0.36133  1.0000
  Si          0.39298      0.09779      0.69566  1.0000
  Si          0.90669      0.29381      0.02835  1.0000
  Si          0.40721      0.29468      0.49413  1.0000
  Si          0.87867      0.58687      0.16123  1.0000
  Si          0.71541      0.12856      0.82847  1.0000
  Si          0.61085      0.70420      0.98455  1.0000
  Si          0.09943      0.39491      0.65299  1.0000
  Si          0.29259      0.90615      0.31907  1.0000
  Si          0.25362      0.33894      0.95536  1.0000
  Si          0.65566      0.91046      0.28871  1.0000
  Si          0.08891      0.75016      0.62353  1.0000
  Si          0.76102      0.66468      0.46355  1.0000
  Si          0.33750      0.10399      0.79775  1.0000
  Si          0.89513      0.23263      0.13058  1.0000
  Si          0.33876      0.25159      0.39201  1.0000
  Si          0.90991      0.65705      0.05925  1.0000
  Si          0.74943      0.09825      0.72570  1.0000
  Si          0.65755      0.76641      0.88218  1.0000
  Si          0.09802      0.33734      0.55089  1.0000
  Si          0.23251      0.89825      0.21682  1.0000
  Si          0.98308      0.11897      0.97503  1.0000
  Si          0.87616      0.85999      0.30813  1.0000
  Si          0.14268      0.02332      0.64228  1.0000
  Si          0.03493      0.88301      0.47368  1.0000
  Si          0.11496      0.15559      0.80653  1.0000
  Si          0.83914      0.95837      0.13991  1.0000
  Si          0.11801      0.98094      0.37299  1.0000
  Si          0.86053      0.87779      0.03937  1.0000
  Si          0.02015      0.14561      0.70590  1.0000
  Si          0.88293      0.04074      0.87447  1.0000
  Si          0.15418      0.11889      0.54146  1.0000
  Si          0.95756      0.84144      0.20765  1.0000
  O2          0.94594      0.99982      0.00802  1.0000
  O2          0.99627      0.94204      0.34095  1.0000
  O2          0.05901      0.06181      0.67415  1.0000
  O2          0.08409      0.00061      0.50774  1.0000
  O2          0.00114      0.08189      0.84148  1.0000
  O2          0.90767      0.90936      0.17384  1.0000
  O3          0.34258      0.58859      0.35523  1.0000
  O3          0.41893      0.76418      0.68609  1.0000
  O3          0.24469      0.65057      0.02529  1.0000
  O3          0.65337      0.44415      0.82711  1.0000
  O3          0.55678      0.21419      0.16338  1.0000
  O3          0.77871      0.34494      0.49960  1.0000
  O3          0.59400      0.34737      0.98934  1.0000
  O2          0.75649      0.40957      0.66174  1.0000
  O3          0.65158      0.24301      0.32566  1.0000
  O3          0.43492      0.65642      0.51543  1.0000
  O3          0.21090      0.55711      0.18487  1.0000
  O1          0.33724      0.77991      0.85381  1.0000
  O2          0.13707      0.20425      0.97427  1.0000
  O2          0.78999      0.92770      0.30783  1.0000
  O2          0.07578      0.86943      0.64297  1.0000
  O2          0.88251      0.79916      0.48032  1.0000
  O2          0.20253      0.09201      0.81277  1.0000
  O2          0.90610      0.11031      0.14746  1.0000
  O2          0.20449      0.13463      0.37287  1.0000
  O2          0.92808      0.79153      0.04027  1.0000
  O2          0.86709      0.08721      0.70389  1.0000
  O2          0.78884      0.89065      0.86530  1.0000
  O2          0.08585      0.20294      0.53446  1.0000
  O2          0.10948      0.90828      0.19987  1.0000
  O2          0.92831      0.86179      0.25858  1.0000
  O2          0.13907      0.06975      0.59228  1.0000
  O2          0.92992      0.06427      0.92584  1.0000
  O2          0.06042      0.13627      0.75626  1.0000
  O2          0.85741      0.92685      0.08908  1.0000
  O2          0.06860      0.93249      0.42291  1.0000
  O2          0.92340      0.20563      0.99077  1.0000
  O2          0.79055      0.71361      0.32360  1.0000
  O2          0.29050      0.08655      0.65771  1.0000
  O2          0.10144      0.79847      0.48363  1.0000
  O2          0.19473      0.30726      0.81601  1.0000
  O2          0.68743      0.88985      0.14914  1.0000
  O2          0.20321      0.92012      0.35686  1.0000
  O2          0.71595      0.79348      0.02190  1.0000
  O2          0.08799      0.29286      0.69085  1.0000
  O2          0.81430      0.12350      0.86469  1.0000
  O2          0.30530      0.20198      0.53156  1.0000
  O2          0.88771      0.68947      0.19863  1.0000
  O1          0.30547      0.61636      0.26477  1.0000
  O1          0.38299      0.69435      0.59629  1.0000
  O1          0.30215      0.68586      0.93416  1.0000
  O3          0.68462      0.37759      0.74636  1.0000
  O1          0.61491      0.30596      0.08135  1.0000
  O1          0.69088      0.31037      0.41688  1.0000
  O2          0.38434      0.33986      0.96791  1.0000
  O2          0.65627      0.04026      0.30238  1.0000
  O2          0.95933      0.62111      0.63839  1.0000
  O2          0.63590      0.66518      0.48257  1.0000
  O3          0.33120      0.97764      0.81605  1.0000
  O2          0.02005      0.35685      0.15064  1.0000
  O2          0.33849      0.38007      0.37724  1.0000
  O2          0.03930      0.65695      0.04535  1.0000
  O2          0.62306      0.96863      0.71085  1.0000
  O2          0.65991      0.64218      0.86274  1.0000
  O2          0.97004      0.33505      0.53322  1.0000
  O2          0.35718      0.02418      0.19781  1.0000
  O3          0.78097      0.29768      0.01464  1.0000
  O3          0.69871      0.48068      0.34858  1.0000
  O2          0.52926      0.22241      0.68310  1.0000
  O3          0.24550      0.71399      0.51510  1.0000
  O3          0.27803      0.53386      0.84943  1.0000
  O3          0.45850      0.74731      0.18163  1.0000
  O3          0.29630      0.78037      0.33244  1.0000
  O3          0.48122      0.69807      0.99961  1.0000
  O3          0.22561      0.52461      0.66550  1.0000
  O3          0.72185      0.26307      0.83190  1.0000
  O3          0.53433      0.28741      0.49922  1.0000
  O3          0.74349      0.46027      0.16505  1.0000
  O3          0.78953      0.54307      0.03481  1.0000
  O3          0.45363      0.24469      0.36858  1.0000
  O2          0.74792      0.21976      0.70404  1.0000
  O3          0.22494      0.45289      0.53127  1.0000
  O3          0.53890      0.77652      0.86484  1.0000
  O3          0.21963      0.76912      0.19859  1.0000
  O3          0.54168      0.79068      0.31315  1.0000
  O3          0.24791      0.45196      0.98088  1.0000
  O3          0.21067      0.75626      0.64649  1.0000
  O3          0.45283      0.23324      0.81702  1.0000
  O3          0.77492      0.54932      0.48199  1.0000
  O3          0.76522      0.21938      0.14794  1.0000
  O2          0.23399      0.33691      0.90152  1.0000
  O2          0.65788      0.89475      0.23469  1.0000
  O2          0.09886      0.76491      0.56936  1.0000
  O2          0.77065      0.67279      0.40863  1.0000
  O2          0.33490      0.11227      0.74240  1.0000
  O2          0.89708      0.22421      0.07564  1.0000
  O2          0.33494      0.23582      0.44612  1.0000
  O2          0.89536      0.65994      0.11327  1.0000
  O2          0.76762      0.10859      0.77964  1.0000
  O2          0.66750      0.77524      0.93722  1.0000
  O2          0.10434      0.33126      0.60578  1.0000
  O2          0.22291      0.89769      0.27177  1.0000
  O2          0.59256      0.56200      0.98541  1.0000
  O2          0.43580      0.02843      0.32096  1.0000
  O2          0.97668      0.41537      0.65543  1.0000
  O2          0.43802      0.43948      0.50338  1.0000
  O3          0.57567      0.01400      0.84160  1.0000
  O2          0.99098      0.55414      0.17151  1.0000
  O2          0.55809      0.58853      0.35897  1.0000
  O2          0.02863      0.43725      0.02700  1.0000
  O2          0.40700      0.97191      0.69468  1.0000
  O2          0.43447      0.44272      0.84303  1.0000
  O2          0.99716      0.56104      0.51251  1.0000
  O2          0.55552      0.99598      0.17760  1.0000
  O2          0.56728      0.14624      0.24607  1.0000
  O2          0.85141      0.42590      0.58199  1.0000
  O2          0.57652      0.43116      0.91014  1.0000
  O3          0.43151      0.85045      0.76667  1.0000
  O2          0.14126      0.56750      0.10308  1.0000
  O2          0.42622      0.57428      0.43394  1.0000
  F           0.41368      0.85027      0.25034  1.0000
  F           0.14770      0.56708      0.58400  1.0000
  F           0.43178      0.58285      0.91659  1.0000
  F           0.56146      0.14334      0.76884  1.0000
  F           0.84855      0.41478      0.09733  1.0000
  F           0.58032      0.43446      0.43060  1.0000
