data_cif

_audit_creation_method             'generated by GULP'

_symmetry_space_group_name_H-M     'P 1'
_symmetry_Int_Tables_number        1
_symmetry_cell_setting             triclinic

_cell_length_a                       12.0646
_cell_length_b                       12.0680
_cell_length_c                       29.6812
_cell_angle_alpha                   89.8521
_cell_angle_beta                    90.0895
_cell_angle_gamma                  120.0215

loop_
_atom_site_label
_atom_site_fract_x
_atom_site_fract_y
_atom_site_fract_z
_atom_site_occupancy
  Ge          0.69960      0.37570      0.03389  1.0000
  Si          0.62663      0.32108      0.36443  1.0000
  Ge          0.67730      0.30414      0.69988  1.0000
  Ge          0.30048      0.62422      0.54738  1.0000
  Ge          0.38393      0.67872      0.87771  1.0000
  Ge          0.32381      0.70321      0.21139  1.0000
  Ge          0.37759      0.69407      0.30981  1.0000
  Ge          0.32325      0.62375      0.97603  1.0000
  Si          0.30540      0.68006      0.64535  1.0000
  Ge          0.61965      0.29748      0.79843  1.0000
  Ge          0.68280      0.38102      0.46252  1.0000
  Ge          0.70508      0.32025      0.13218  1.0000
  Si          0.53547      0.42122      0.96383  1.0000
  Si          0.57742      0.11027      0.29760  1.0000
  Ge          0.88860      0.45979      0.62594  1.0000
  Ge          0.47927      0.57176      0.48646  1.0000
  Si          0.42070      0.90102      0.81512  1.0000
  Si          0.10175      0.51844      0.14881  1.0000
  Si          0.42110      0.53158      0.38149  1.0000
  Si          0.11433      0.57877      0.04612  1.0000
  Si          0.46710      0.89064      0.71243  1.0000
  Si          0.58274      0.48179      0.86115  1.0000
  Si          0.91042      0.41985      0.52142  1.0000
  Si          0.51912      0.09905      0.19500  1.0000
  Si          0.29532      0.40888      0.85122  1.0000
  Si          0.59382      0.88613      0.18550  1.0000
  Si          0.12376      0.71092      0.51658  1.0000
  Si          0.70422      0.60637      0.36061  1.0000
  Si          0.39056      0.09819      0.69290  1.0000
  Si          0.90657      0.29527      0.02587  1.0000
  Si          0.41569      0.28229      0.49273  1.0000
  Si          0.88669      0.59040      0.15850  1.0000
  Si          0.70826      0.11523      0.82405  1.0000
  Si          0.61108      0.70458      0.98406  1.0000
  Si          0.10375      0.39117      0.64858  1.0000
  Si          0.29470      0.89920      0.31747  1.0000
  Si          0.25213      0.34137      0.95333  1.0000
  Si          0.66040      0.90973      0.28786  1.0000
  Si          0.09408      0.74757      0.61917  1.0000
  Si          0.76628      0.65981      0.46274  1.0000
  Si          0.33741      0.09970      0.79499  1.0000
  Si          0.90319      0.23694      0.12806  1.0000
  Si          0.34856      0.24988      0.39020  1.0000
  Si          0.91075      0.65828      0.05643  1.0000
  Si          0.75105      0.09304      0.72161  1.0000
  Si          0.66556      0.76313      0.88187  1.0000
  Si          0.11343      0.34183      0.54555  1.0000
  Si          0.23766      0.89889      0.21541  1.0000
  Si          0.98125      0.12071      0.97252  1.0000
  Si          0.87987      0.85637      0.30674  1.0000
  Si          0.14240      0.01952      0.63913  1.0000
  Si          0.04083      0.88290      0.47061  1.0000
  Si          0.11923      0.15557      0.80418  1.0000
  Si          0.84712      0.96283      0.13815  1.0000
  Si          0.12472      0.97923      0.37020  1.0000
  Si          0.86067      0.87913      0.03750  1.0000
  Si          0.02433      0.14213      0.70300  1.0000
  Si          0.88378      0.03740      0.87182  1.0000
  Si          0.16004      0.11497      0.53835  1.0000
  Si          0.96322      0.84312      0.20593  1.0000
  O2          0.94280      0.00000      0.00504  1.0000
  O2          0.00290      0.94106      0.33810  1.0000
  O2          0.05615      0.05218      0.67196  1.0000
  O2          0.08174      0.99700      0.50547  1.0000
  O2          0.00166      0.08616      0.83808  1.0000
  O2          0.91531      0.91330      0.17215  1.0000
  O3          0.34535      0.58136      0.35174  1.0000
  O2          0.40756      0.75757      0.68522  1.0000
  O3          0.24301      0.65516      0.01850  1.0000
  O3          0.65737      0.43729      0.83024  1.0000
  O3          0.56446      0.21818      0.16391  1.0000
  O3          0.79710      0.34608      0.48764  1.0000
  O3          0.58765      0.34460      0.99139  1.0000
  O1          0.75226      0.40864      0.65620  1.0000
  O2          0.65176      0.24312      0.32497  1.0000
  O1          0.44438      0.66042      0.52061  1.0000
  O3          0.22110      0.56306      0.17972  1.0000
  O3          0.34634      0.78153      0.84597  1.0000
  O2          0.13505      0.20744      0.97264  1.0000
  O2          0.79314      0.92358      0.30724  1.0000
  O2          0.08487      0.86723      0.63965  1.0000
  O2          0.89017      0.79414      0.47785  1.0000
  O2          0.20365      0.08792      0.81184  1.0000
  O2          0.91584      0.11525      0.14488  1.0000
  O2          0.21911      0.13239      0.36868  1.0000
  O2          0.92749      0.79223      0.03719  1.0000
  O2          0.87105      0.08194      0.70196  1.0000
  O2          0.79950      0.88509      0.86498  1.0000
  O2          0.10454      0.20945      0.52918  1.0000
  O2          0.11560      0.91135      0.19900  1.0000
  O2          0.92863      0.85788      0.25669  1.0000
  O2          0.13515      0.06737      0.58964  1.0000
  O2          0.93246      0.06988      0.92274  1.0000
  O2          0.06880      0.13858      0.75341  1.0000
  O2          0.86345      0.92972      0.08735  1.0000
  O2          0.07301      0.93714      0.42026  1.0000
  O2          0.91986      0.20577      0.98807  1.0000
  O2          0.79531      0.70928      0.32279  1.0000
  O2          0.28908      0.08660      0.65482  1.0000
  O2          0.11525      0.80521      0.47956  1.0000
  O2          0.20256      0.30701      0.81368  1.0000
  O2          0.69598      0.89601      0.14801  1.0000
  O2          0.20456      0.91166      0.35528  1.0000
  O2          0.71400      0.79421      0.02191  1.0000
  O2          0.09717      0.28860      0.68579  1.0000
  O2          0.80094      0.10559      0.86153  1.0000
  O2          0.31151      0.18250      0.52876  1.0000
  O2          0.89562      0.69207      0.19598  1.0000
  O1          0.31049      0.61488      0.26129  1.0000
  O3          0.38061      0.69490      0.60023  1.0000
  O1          0.31064      0.69256      0.92786  1.0000
  O1          0.69290      0.38528      0.74837  1.0000
  O1          0.61795      0.30632      0.08193  1.0000
  O3          0.69226      0.31287      0.40940  1.0000
  O2          0.38080      0.34115      0.96803  1.0000
  O2          0.66070      0.03918      0.30273  1.0000
  O3          0.96372      0.62458      0.63266  1.0000
  O3          0.64649      0.66629      0.48122  1.0000
  O2          0.33676      0.97317      0.81327  1.0000
  O2          0.02921      0.36229      0.14669  1.0000
  O2          0.34486      0.37674      0.37635  1.0000
  O2          0.03965      0.65867      0.04174  1.0000
  O2          0.62160      0.96267      0.70701  1.0000
  O2          0.66630      0.63793      0.86319  1.0000
  O2          0.98577      0.33879      0.52674  1.0000
  O2          0.36304      0.02655      0.19738  1.0000
  O3          0.77969      0.29809      0.01326  1.0000
  O2          0.69219      0.47042      0.34717  1.0000
  O3          0.51834      0.22558      0.68044  1.0000
  O3          0.25976      0.72178      0.51296  1.0000
  O3          0.28849      0.53614      0.84571  1.0000
  O3          0.46752      0.75133      0.17985  1.0000
  O3          0.29841      0.77320      0.33012  1.0000
  O3          0.48132      0.70162      0.99652  1.0000
  O2          0.22722      0.52896      0.66125  1.0000
  O3          0.71593      0.24958      0.82969  1.0000
  O3          0.54396      0.27579      0.49571  1.0000
  O3          0.75263      0.46305      0.16399  1.0000
  O3          0.78912      0.54327      0.03303  1.0000
  O2          0.47070      0.25180      0.36751  1.0000
  O3          0.75513      0.21367      0.69855  1.0000
  O3          0.24162      0.45969      0.52763  1.0000
  O3          0.55002      0.77645      0.86309  1.0000
  O3          0.22615      0.77163      0.19609  1.0000
  O3          0.54501      0.78776      0.31084  1.0000
  O3          0.24553      0.45624      0.97674  1.0000
  O2          0.21245      0.74243      0.64272  1.0000
  O3          0.45366      0.22802      0.81362  1.0000
  O3          0.78014      0.54403      0.48159  1.0000
  O3          0.77422      0.22330      0.14681  1.0000
  O2          0.23569      0.33730      0.89923  1.0000
  O2          0.66523      0.89971      0.23370  1.0000
  O2          0.10787      0.76566      0.56516  1.0000
  O2          0.77739      0.66295      0.40735  1.0000
  O2          0.32699      0.10157      0.74018  1.0000
  O2          0.90060      0.22654      0.07316  1.0000
  O2          0.34268      0.23042      0.44404  1.0000
  O2          0.89866      0.66219      0.11052  1.0000
  O2          0.76624      0.10271      0.77579  1.0000
  O2          0.67371      0.77327      0.93677  1.0000
  O2          0.11648      0.33548      0.60079  1.0000
  O2          0.22582      0.89362      0.27029  1.0000
  O2          0.58934      0.56113      0.98660  1.0000
  O2          0.43785      0.02201      0.31973  1.0000
  O3          0.97685      0.39996      0.65187  1.0000
  O3          0.44071      0.42155      0.50643  1.0000
  O2          0.56343      0.00130      0.83328  1.0000
  O2          0.00145      0.56044      0.16728  1.0000
  O2          0.56449      0.59296      0.36024  1.0000
  O2          0.02835      0.43877      0.02337  1.0000
  O2          0.41404      0.97741      0.69020  1.0000
  O2          0.44020      0.43922      0.84258  1.0000
  O2          0.01142      0.56587      0.50611  1.0000
  O2          0.56175      0.99935      0.17648  1.0000
  O2          0.57287      0.14541      0.24593  1.0000
  O3          0.85213      0.41818      0.57096  1.0000
  O2          0.57642      0.42883      0.91207  1.0000
  O2          0.42804      0.85550      0.76411  1.0000
  O2          0.14806      0.57152      0.09789  1.0000
  O3          0.41885      0.56756      0.43253  1.0000
  F           0.41828      0.85003      0.24841  1.0000
  F           0.14783      0.56194      0.57774  1.0000
  F           0.43523      0.58241      0.91474  1.0000
  F           0.56710      0.15021      0.76113  1.0000
  F           0.85277      0.41705      0.09500  1.0000
  F           0.58258      0.43633      0.43291  1.0000
