data_cif

_audit_creation_method             'generated by GULP'

_symmetry_space_group_name_H-M     'P 1'
_symmetry_Int_Tables_number        1
_symmetry_cell_setting             triclinic

_cell_length_a                       12.0729
_cell_length_b                       12.1017
_cell_length_c                       29.7306
_cell_angle_alpha                   90.6645
_cell_angle_beta                    89.3191
_cell_angle_gamma                  120.0193

loop_
_atom_site_label
_atom_site_fract_x
_atom_site_fract_y
_atom_site_fract_z
_atom_site_occupancy
  Ge          0.69960      0.37570      0.03389  1.0000
  Ge          0.63054      0.32813      0.36671  1.0000
  Ge          0.68147      0.31345      0.70100  1.0000
  Ge          0.29911      0.62551      0.54357  1.0000
  Ge          0.37028      0.69245      0.87573  1.0000
  Ge          0.33337      0.70488      0.21206  1.0000
  Ge          0.38453      0.70336      0.31052  1.0000
  Ge          0.33210      0.61474      0.97254  1.0000
  Ge          0.30258      0.68689      0.64139  1.0000
  Ge          0.61507      0.30080      0.79941  1.0000
  Ge          0.68277      0.39009      0.46507  1.0000
  Ge          0.70866      0.32388      0.13252  1.0000
  Si          0.53091      0.41884      0.96651  1.0000
  Si          0.58466      0.11685      0.29673  1.0000
  Si          0.89037      0.47763      0.63071  1.0000
  Si          0.48662      0.58769      0.48210  1.0000
  Si          0.41389      0.91101      0.81187  1.0000
  Ge          0.10946      0.52785      0.14690  1.0000
  Si          0.42763      0.53913      0.37962  1.0000
  Si          0.12050      0.57897      0.04185  1.0000
  Si          0.46765      0.89981      0.70985  1.0000
  Si          0.57609      0.48144      0.86420  1.0000
  Si          0.90267      0.42756      0.52813  1.0000
  Si          0.52554      0.09959      0.19420  1.0000
  Si          0.28947      0.41066      0.85650  1.0000
  Si          0.60252      0.88797      0.18527  1.0000
  Si          0.11771      0.71423      0.51829  1.0000
  Si          0.71164      0.61557      0.35900  1.0000
  Si          0.39316      0.10791      0.69138  1.0000
  Si          0.90438      0.29286      0.02629  1.0000
  Si          0.41233      0.30147      0.49187  1.0000
  Si          0.88658      0.59518      0.15781  1.0000
  Si          0.70141      0.11782      0.82550  1.0000
  Si          0.60887      0.70221      0.98870  1.0000
  Si          0.09690      0.40099      0.65041  1.0000
  Si          0.30134      0.90832      0.31711  1.0000
  Si          0.24627      0.33558      0.95755  1.0000
  Si          0.66679      0.91525      0.28742  1.0000
  Si          0.09351      0.76021      0.62031  1.0000
  Si          0.76826      0.67093      0.46115  1.0000
  Si          0.33242      0.10968      0.79340  1.0000
  Si          0.90621      0.24003      0.12819  1.0000
  Si          0.34720      0.25686      0.38986  1.0000
  Si          0.91489      0.65734      0.05513  1.0000
  Si          0.75024      0.10071      0.72306  1.0000
  Si          0.65617      0.76053      0.88642  1.0000
  Si          0.10066      0.34450      0.54831  1.0000
  Si          0.24343      0.89827      0.21496  1.0000
  Si          0.97595      0.11486      0.97255  1.0000
  Si          0.88678      0.86506      0.30612  1.0000
  Si          0.14375      0.03162      0.63912  1.0000
  Si          0.04180      0.88983      0.47125  1.0000
  Si          0.11199      0.16245      0.80545  1.0000
  Si          0.85656      0.96769      0.13801  1.0000
  Si          0.12706      0.98587      0.37071  1.0000
  Si          0.86350      0.87643      0.03792  1.0000
  Si          0.02247      0.15357      0.70423  1.0000
  Si          0.87349      0.03577      0.87227  1.0000
  Si          0.15721      0.12656      0.53873  1.0000
  Si          0.96993      0.84957      0.20523  1.0000
  O2          0.93595      0.99178      0.00297  1.0000
  O2          0.00614      0.94709      0.33892  1.0000
  O2          0.06291      0.07069      0.67254  1.0000
  O2          0.08897      0.00759      0.50528  1.0000
  O2          0.98839      0.08266      0.83648  1.0000
  O2          0.93054      0.92743      0.17246  1.0000
  O3          0.35231      0.59287      0.35317  1.0000
  O3          0.41687      0.77105      0.68278  1.0000
  O3          0.24142      0.65091      0.01091  1.0000
  O3          0.65123      0.43918      0.83197  1.0000
  O3          0.56721      0.21740      0.16345  1.0000
  O3          0.78414      0.35303      0.49728  1.0000
  O3          0.58545      0.34313      0.99247  1.0000
  O3          0.76213      0.42559      0.65907  1.0000
  O3          0.66061      0.24641      0.32414  1.0000
  O3          0.44039      0.66275      0.51261  1.0000
  O1          0.23457      0.56800      0.18051  1.0000
  O3          0.33575      0.78730      0.84108  1.0000
  O2          0.12987      0.19742      0.97353  1.0000
  O2          0.79989      0.93170      0.30684  1.0000
  O2          0.07794      0.87825      0.63963  1.0000
  O2          0.88941      0.80516      0.47800  1.0000
  O2          0.19752      0.09536      0.81026  1.0000
  O2          0.91784      0.11830      0.14453  1.0000
  O2          0.21415      0.13926      0.37065  1.0000
  O2          0.93040      0.79011      0.03574  1.0000
  O2          0.86858      0.08539      0.70383  1.0000
  O2          0.78484      0.88355      0.86674  1.0000
  O2          0.08936      0.21058      0.53166  1.0000
  O2          0.12138      0.90845      0.19808  1.0000
  O2          0.94002      0.86829      0.25653  1.0000
  O2          0.13842      0.07823      0.58964  1.0000
  O2          0.92877      0.07006      0.92200  1.0000
  O2          0.07019      0.15596      0.75420  1.0000
  O2          0.87677      0.93376      0.08747  1.0000
  O2          0.07656      0.93898      0.42069  1.0000
  O2          0.91567      0.20032      0.98870  1.0000
  O2          0.80174      0.71861      0.32150  1.0000
  O2          0.29131      0.09465      0.65358  1.0000
  O2          0.10918      0.80652      0.48111  1.0000
  O2          0.19362      0.31142      0.81870  1.0000
  O2          0.70502      0.89538      0.14805  1.0000
  O2          0.21116      0.92347      0.35474  1.0000
  O2          0.71458      0.78982      0.02571  1.0000
  O2          0.08309      0.29882      0.68804  1.0000
  O2          0.79036      0.10408      0.86288  1.0000
  O2          0.30877      0.20957      0.52925  1.0000
  O2          0.89158      0.69929      0.19420  1.0000
  O1          0.31793      0.61999      0.26293  1.0000
  O1          0.38562      0.69918      0.59363  1.0000
  O1          0.31116      0.69732      0.92712  1.0000
  O1          0.69262      0.39041      0.75013  1.0000
  O1          0.62188      0.30967      0.08268  1.0000
  O1          0.69829      0.31682      0.41492  1.0000
  O2          0.37628      0.33657      0.97137  1.0000
  O2          0.66539      0.04358      0.30188  1.0000
  O2          0.96435      0.63191      0.63507  1.0000
  O2          0.64262      0.67130      0.48035  1.0000
  O2          0.33227      0.98420      0.81214  1.0000
  O3          0.03421      0.36096      0.14464  1.0000
  O2          0.34731      0.38486      0.37510  1.0000
  O2          0.04289      0.65730      0.04010  1.0000
  O2          0.62245      0.97276      0.70745  1.0000
  O2          0.65844      0.63702      0.86699  1.0000
  O2          0.97457      0.34357      0.53025  1.0000
  O2          0.36918      0.02433      0.19669  1.0000
  O3          0.77814      0.29619      0.01344  1.0000
  O3          0.70917      0.48584      0.34672  1.0000
  O3          0.52346      0.23564      0.68078  1.0000
  O3          0.25153      0.72027      0.51243  1.0000
  O3          0.28407      0.53895      0.85143  1.0000
  O3          0.47733      0.75323      0.18022  1.0000
  O3          0.30609      0.78387      0.33070  1.0000
  O3          0.48070      0.70086      0.00182  1.0000
  O3          0.22361      0.53078      0.66289  1.0000
  O3          0.70600      0.25013      0.83210  1.0000
  O3          0.53933      0.29463      0.49719  1.0000
  O3          0.75236      0.46757      0.16360  1.0000
  O3          0.79192      0.54196      0.03247  1.0000
  O3          0.46311      0.25047      0.36672  1.0000
  O3          0.75738      0.22237      0.70032  1.0000
  O3          0.22891      0.45963      0.52917  1.0000
  O3          0.53637      0.76774      0.86836  1.0000
  O3          0.23287      0.77038      0.19640  1.0000
  O3          0.55184      0.79466      0.31117  1.0000
  O3          0.23484      0.44612      0.98190  1.0000
  O3          0.21414      0.76591      0.64357  1.0000
  O3          0.44765      0.23683      0.81261  1.0000
  O3          0.78135      0.55608      0.47971  1.0000
  O3          0.77936      0.23039      0.14861  1.0000
  O2          0.23051      0.33606      0.90318  1.0000
  O2          0.67269      0.90259      0.23351  1.0000
  O2          0.10616      0.77496      0.56631  1.0000
  O2          0.77875      0.67825      0.40637  1.0000
  O2          0.32684      0.10976      0.73859  1.0000
  O2          0.89507      0.22403      0.07332  1.0000
  O2          0.34162      0.24209      0.44395  1.0000
  O2          0.90221      0.66351      0.10918  1.0000
  O2          0.76330      0.11028      0.77718  1.0000
  O2          0.66832      0.77129      0.94064  1.0000
  O2          0.10331      0.33796      0.60314  1.0000
  O2          0.23214      0.89709      0.26992  1.0000
  O2          0.58762      0.55860      0.98992  1.0000
  O2          0.44390      0.03134      0.31921  1.0000
  O2          0.97564      0.42353      0.65324  1.0000
  O2          0.44309      0.44620      0.50111  1.0000
  O2          0.55550      0.00117      0.83244  1.0000
  O3          0.00165      0.57023      0.16860  1.0000
  O2          0.56775      0.59243      0.35660  1.0000
  O2          0.02602      0.43441      0.02381  1.0000
  O2          0.41770      0.98832      0.68736  1.0000
  O2          0.43388      0.44213      0.84675  1.0000
  O2          0.00352      0.56948      0.50990  1.0000
  O2          0.57047      0.00064      0.17618  1.0000
  O2          0.57825      0.14820      0.24500  1.0000
  O2          0.85617      0.43542      0.57917  1.0000
  O2          0.56980      0.42659      0.91421  1.0000
  O2          0.42085      0.86528      0.76118  1.0000
  O3          0.16206      0.58224      0.09292  1.0000
  O2          0.43464      0.57971      0.43145  1.0000
  F           0.42512      0.85301      0.24842  1.0000
  F           0.15133      0.57584      0.58176  1.0000
  F           0.42188      0.57120      0.92809  1.0000
  F           0.56379      0.15535      0.76229  1.0000
  F           0.85792      0.41978      0.09620  1.0000
  F           0.58743      0.44084      0.42879  1.0000
