data_cif

_audit_creation_method             'generated by GULP'

_symmetry_space_group_name_H-M     'P 1'
_symmetry_Int_Tables_number        1
_symmetry_cell_setting             triclinic

_cell_length_a                       12.0992
_cell_length_b                       12.0914
_cell_length_c                       29.7412
_cell_angle_alpha                   89.7384
_cell_angle_beta                    89.6520
_cell_angle_gamma                  120.0425

loop_
_atom_site_label
_atom_site_fract_x
_atom_site_fract_y
_atom_site_fract_z
_atom_site_occupancy
  Ge          0.69960      0.37570      0.03389  1.0000
  Ge          0.59692      0.29901      0.37073  1.0000
  Ge          0.66361      0.24965      0.70244  1.0000
  Ge          0.27661      0.58018      0.54036  1.0000
  Ge          0.38070      0.65377      0.87498  1.0000
  Ge          0.31492      0.69925      0.20707  1.0000
  Si          0.35177      0.66646      0.30497  1.0000
  Si          0.30422      0.61424      0.97344  1.0000
  Ge          0.29967      0.64900      0.63861  1.0000
  Ge          0.62860      0.29291      0.79980  1.0000
  Ge          0.67035      0.33828      0.46891  1.0000
  Si          0.68915      0.31249      0.13677  1.0000
  Si          0.51656      0.40766      0.97086  1.0000
  Si          0.56178      0.08648      0.30455  1.0000
  Si          0.88071      0.42803      0.63580  1.0000
  Si          0.45441      0.54228      0.47448  1.0000
  Si          0.42142      0.87261      0.80901  1.0000
  Si          0.10677      0.52000      0.14149  1.0000
  Ge          0.40294      0.49815      0.37040  1.0000
  Ge          0.08363      0.55723      0.04153  1.0000
  Si          0.46946      0.85895      0.70636  1.0000
  Ge          0.57370      0.46243      0.86692  1.0000
  Si          0.88656      0.37795      0.53329  1.0000
  Ge          0.51375      0.08748      0.20021  1.0000
  Si          0.28650      0.38314      0.84936  1.0000
  Si          0.58668      0.87481      0.18328  1.0000
  Si          0.09072      0.66466      0.51617  1.0000
  Si          0.68983      0.57362      0.34979  1.0000
  Si          0.38943      0.06253      0.68466  1.0000
  Si          0.89570      0.28713      0.01646  1.0000
  Si          0.38489      0.25521      0.48261  1.0000
  Si          0.89300      0.59327      0.14968  1.0000
  Si          0.70787      0.08902      0.81600  1.0000
  Si          0.58941      0.69243      0.98323  1.0000
  Si          0.09696      0.36067      0.64886  1.0000
  Si          0.27509      0.87248      0.31426  1.0000
  Si          0.23905      0.33301      0.95277  1.0000
  Si          0.63428      0.87924      0.28646  1.0000
  Si          0.07953      0.71044      0.61879  1.0000
  Si          0.73535      0.62243      0.45274  1.0000
  Si          0.34243      0.07320      0.78718  1.0000
  Si          0.90115      0.24188      0.11981  1.0000
  Si          0.31548      0.20929      0.38066  1.0000
  Si          0.90828      0.66194      0.04791  1.0000
  Si          0.75357      0.05963      0.71486  1.0000
  Si          0.66121      0.74889      0.88146  1.0000
  Si          0.08764      0.29755      0.54708  1.0000
  Si          0.22522      0.89006      0.21235  1.0000
  Si          0.96462      0.11089      0.96725  1.0000
  Si          0.85719      0.82748      0.30046  1.0000
  Si          0.13698      0.98369      0.63436  1.0000
  Si          0.00940      0.83803      0.46728  1.0000
  Si          0.12209      0.12865      0.80072  1.0000
  Si          0.83936      0.96234      0.13340  1.0000
  Si          0.09370      0.93653      0.36632  1.0000
  Si          0.83760      0.87228      0.03296  1.0000
  Si          0.02501      0.11045      0.70032  1.0000
  Si          0.88541      0.02021      0.86687  1.0000
  Si          0.13575      0.07493      0.53358  1.0000
  Si          0.95228      0.83824      0.19951  1.0000
  O2          0.91978      0.98691      0.99830  1.0000
  O2          0.97608      0.90399      0.33355  1.0000
  O2          0.06417      0.03031      0.66760  1.0000
  O2          0.05676      0.95624      0.50084  1.0000
  O2          0.00169      0.05117      0.83347  1.0000
  O2          0.91858      0.91946      0.16510  1.0000
  O3          0.31902      0.55578      0.34075  1.0000
  O3          0.41463      0.72910      0.67923  1.0000
  O3          0.22664      0.64355      0.00855  1.0000
  O1          0.66163      0.41388      0.83645  1.0000
  O3          0.57048      0.22819      0.16859  1.0000
  O3          0.75952      0.30148      0.50502  1.0000
  O3          0.56159      0.33368      0.00347  1.0000
  O3          0.75697      0.37868      0.66438  1.0000
  O3          0.63552      0.20204      0.33625  1.0000
  O3          0.41509      0.61652      0.50742  1.0000
  O3          0.21483      0.55746      0.17682  1.0000
  O3          0.34581      0.75560      0.84075  1.0000
  O2          0.11571      0.20757      0.97411  1.0000
  O2          0.76006      0.88164      0.30682  1.0000
  O2          0.06690      0.83019      0.63743  1.0000
  O2          0.85659      0.75147      0.47240  1.0000
  O2          0.21479      0.06999      0.80676  1.0000
  O2          0.89609      0.11395      0.13988  1.0000
  O2          0.18064      0.08916      0.36466  1.0000
  O2          0.90346      0.78633      0.03086  1.0000
  O2          0.87153      0.04025      0.69862  1.0000
  O2          0.79784      0.86824      0.86595  1.0000
  O2          0.06985      0.16184      0.53024  1.0000
  O2          0.10482      0.90502      0.19687  1.0000
  O2          0.90609      0.84742      0.24931  1.0000
  O2          0.12866      0.02547      0.58395  1.0000
  O2          0.94020      0.06921      0.91596  1.0000
  O2          0.07359      0.10865      0.74993  1.0000
  O2          0.85170      0.93158      0.08205  1.0000
  O2          0.04387      0.88881      0.41650  1.0000
  O2          0.88561      0.18055      0.98082  1.0000
  O2          0.78454      0.67789      0.31274  1.0000
  O2          0.28461      0.04424      0.64734  1.0000
  O2          0.07552      0.75427      0.47874  1.0000
  O2          0.19386      0.27828      0.81276  1.0000
  O2          0.69127      0.88359      0.14708  1.0000
  O2          0.17626      0.87112      0.35168  1.0000
  O2          0.68762      0.78813      0.02102  1.0000
  O2          0.08764      0.25830      0.68619  1.0000
  O2          0.80402      0.08715      0.85341  1.0000
  O2          0.28457      0.15847      0.52008  1.0000
  O2          0.88797      0.68850      0.18710  1.0000
  O3          0.30169      0.60898      0.25667  1.0000
  O1          0.37038      0.66203      0.58789  1.0000
  O3          0.30369      0.66691      0.92375  1.0000
  O1          0.68357      0.35370      0.74747  1.0000
  O3          0.64156      0.31256      0.08669  1.0000
  O1          0.67804      0.28361      0.41731  1.0000
  O2          0.36182      0.32528      0.96963  1.0000
  O2          0.64025      0.00880      0.30233  1.0000
  O2          0.95124      0.58385      0.63459  1.0000
  O2          0.60974      0.62615      0.46796  1.0000
  O2          0.33901      0.94618      0.80556  1.0000
  O2          0.03030      0.36225      0.13752  1.0000
  O3          0.31278      0.33404      0.36367  1.0000
  O3          0.03690      0.67402      0.02974  1.0000
  O2          0.62360      0.93085      0.70031  1.0000
  O3          0.66729      0.62701      0.86358  1.0000
  O2          0.96107      0.29828      0.52942  1.0000
  O3          0.34981      0.01924      0.19531  1.0000
  O3          0.76726      0.29423      0.00900  1.0000
  O3          0.68593      0.44356      0.33864  1.0000
  O3          0.51749      0.18942      0.67168  1.0000
  O3          0.22143      0.66772      0.50700  1.0000
  O3          0.28665      0.51281      0.84138  1.0000
  O3          0.45748      0.74659      0.17424  1.0000
  O2          0.27630      0.74064      0.32140  1.0000
  O2          0.45576      0.68885      0.98936  1.0000
  O3          0.22806      0.48915      0.65728  1.0000
  O3          0.71556      0.22341      0.82099  1.0000
  O3          0.51239      0.24895      0.48880  1.0000
  O2          0.75985      0.45924      0.15423  1.0000
  O3          0.78256      0.53949      0.02802  1.0000
  O3          0.43002      0.19904      0.35892  1.0000
  O3          0.76464      0.18212      0.69125  1.0000
  O3          0.21358      0.41284      0.52667  1.0000
  O3          0.54766      0.76112      0.86080  1.0000
  O3          0.21505      0.76528      0.19150  1.0000
  O2          0.50801      0.75709      0.30678  1.0000
  O2          0.24592      0.45900      0.97221  1.0000
  O3          0.20235      0.71749      0.64081  1.0000
  O3          0.46206      0.19902      0.80562  1.0000
  O3          0.73863      0.50321      0.47411  1.0000
  O2          0.77960      0.24878      0.13903  1.0000
  O2          0.22635      0.32024      0.89877  1.0000
  O2          0.64648      0.87510      0.23253  1.0000
  O2          0.08976      0.72692      0.56452  1.0000
  O2          0.75320      0.63129      0.39857  1.0000
  O2          0.33058      0.07249      0.73281  1.0000
  O2          0.89588      0.22685      0.06594  1.0000
  O2          0.31352      0.19912      0.43544  1.0000
  O2          0.90144      0.66416      0.10273  1.0000
  O2          0.76662      0.07215      0.76919  1.0000
  O2          0.66119      0.75581      0.93642  1.0000
  O2          0.09146      0.29195      0.60171  1.0000
  O2          0.21427      0.88068      0.26725  1.0000
  O2          0.56777      0.55041      0.99023  1.0000
  O2          0.41630      0.98985      0.32163  1.0000
  O2          0.98179      0.38963      0.65567  1.0000
  O2          0.41831      0.39989      0.49137  1.0000
  O2          0.56335      0.97752      0.82580  1.0000
  O2          0.00769      0.56694      0.15883  1.0000
  O3          0.55157      0.56160      0.34534  1.0000
  O3          0.02261      0.41792      0.00664  1.0000
  O2          0.41051      0.93974      0.68290  1.0000
  O3          0.42629      0.39934      0.84162  1.0000
  O2          0.97049      0.51996      0.51128  1.0000
  O3          0.57502      0.00105      0.17535  1.0000
  O3          0.56086      0.13593      0.25406  1.0000
  O2          0.84468      0.37946      0.58444  1.0000
  O3          0.57096      0.41088      0.92150  1.0000
  O2          0.43042      0.82607      0.75840  1.0000
  O3          0.16394      0.57613      0.09253  1.0000
  O3          0.39600      0.53574      0.42519  1.0000
  F           0.40938      0.84931      0.24046  1.0000
  F           0.13399      0.52654      0.57781  1.0000
  F           0.43779      0.55884      0.90706  1.0000
  F           0.57567      0.11544      0.74437  1.0000
  F           0.92354      0.46285      0.07342  1.0000
  F           0.54610      0.39145      0.40955  1.0000
