data_cif

_audit_creation_method             'generated by GULP'

_symmetry_space_group_name_H-M     'P 1'
_symmetry_Int_Tables_number        1
_symmetry_cell_setting             triclinic

_cell_length_a                       12.1017
_cell_length_b                       12.0838
_cell_length_c                       29.7306
_cell_angle_alpha                   90.0147
_cell_angle_beta                    90.6644
_cell_angle_gamma                  120.1086

loop_
_atom_site_label
_atom_site_fract_x
_atom_site_fract_y
_atom_site_fract_z
_atom_site_occupancy
  Ge          0.69960      0.37570      0.03389  1.0000
  Ge          0.63397      0.32476      0.36818  1.0000
  Ge          0.67810      0.30664      0.70107  1.0000
  Ge          0.32416      0.63595      0.54291  1.0000
  Ge          0.37352      0.67287      0.87924  1.0000
  Ge          0.32840      0.70713      0.21075  1.0000
  Ge          0.38631      0.70366      0.30857  1.0000
  Ge          0.32084      0.62171      0.97770  1.0000
  Ge          0.28465      0.67414      0.63972  1.0000
  Ge          0.61722      0.29757      0.79970  1.0000
  Ge          0.68773      0.39116      0.46659  1.0000
  Ge          0.70932      0.32346      0.13225  1.0000
  Si          0.53420      0.42158      0.96391  1.0000
  Si          0.58926      0.11586      0.29789  1.0000
  Si          0.88993      0.47533      0.63369  1.0000
  Si          0.49912      0.59235      0.47905  1.0000
  Ge          0.42039      0.89677      0.81407  1.0000
  Si          0.10307      0.51961      0.14928  1.0000
  Si          0.43416      0.53859      0.37703  1.0000
  Si          0.11351      0.57861      0.04680  1.0000
  Si          0.46047      0.88574      0.70903  1.0000
  Si          0.57605      0.48070      0.86138  1.0000
  Si          0.90735      0.43014      0.53138  1.0000
  Si          0.52690      0.10357      0.19531  1.0000
  Si          0.28745      0.40372      0.85245  1.0000
  Si          0.59852      0.88853      0.18547  1.0000
  Si          0.12319      0.71677      0.52368  1.0000
  Si          0.71675      0.61308      0.35856  1.0000
  Si          0.39048      0.10185      0.69347  1.0000
  Si          0.90593      0.29459      0.02618  1.0000
  Si          0.41841      0.30482      0.49268  1.0000
  Si          0.89114      0.59391      0.15905  1.0000
  Si          0.71060      0.11965      0.82499  1.0000
  Si          0.60899      0.70490      0.98429  1.0000
  Si          0.09534      0.39736      0.65588  1.0000
  Si          0.30610      0.90934      0.31759  1.0000
  Si          0.25047      0.33944      0.95460  1.0000
  Si          0.66869      0.91272      0.28749  1.0000
  Si          0.09131      0.75997      0.62473  1.0000
  Si          0.77926      0.67382      0.46058  1.0000
  Si          0.33582      0.10003      0.79537  1.0000
  Si          0.90467      0.23797      0.12833  1.0000
  Si          0.35247      0.25600      0.39024  1.0000
  Si          0.91166      0.65904      0.05704  1.0000
  Si          0.74445      0.09135      0.72231  1.0000
  Si          0.65685      0.76281      0.88214  1.0000
  Si          0.10636      0.35006      0.55360  1.0000
  Si          0.24584      0.90558      0.21549  1.0000
  Si          0.98028      0.11946      0.97330  1.0000
  Si          0.88987      0.86248      0.30630  1.0000
  Si          0.14091      0.03029      0.63973  1.0000
  Si          0.05246      0.89425      0.47263  1.0000
  Si          0.11313      0.14967      0.80519  1.0000
  Si          0.85002      0.96443      0.13843  1.0000
  Si          0.13310      0.98377      0.37141  1.0000
  Si          0.86082      0.87918      0.03789  1.0000
  Si          0.01494      0.14274      0.70510  1.0000
  Si          0.88164      0.03630      0.87241  1.0000
  Si          0.16428      0.13274      0.53945  1.0000
  Si          0.97135      0.84903      0.20591  1.0000
  O2          0.94296      0.00010      0.00610  1.0000
  O2          0.00978      0.94332      0.33972  1.0000
  O2          0.05784      0.07029      0.67015  1.0000
  O2          0.09627      0.01784      0.50366  1.0000
  O2          0.99889      0.07570      0.83964  1.0000
  O2          0.92062      0.91726      0.17246  1.0000
  O3          0.35618      0.58937      0.34996  1.0000
  O3          0.41150      0.76482      0.67809  1.0000
  O3          0.24256      0.65392      0.02035  1.0000
  O3          0.65219      0.43903      0.83063  1.0000
  O3          0.57089      0.22210      0.16446  1.0000
  O3          0.78995      0.35501      0.49915  1.0000
  O3          0.58780      0.34562      0.99132  1.0000
  O3          0.75968      0.42078      0.65965  1.0000
  O3          0.66546      0.24411      0.32625  1.0000
  O3          0.45354      0.67048      0.50826  1.0000
  O3          0.22436      0.56584      0.17979  1.0000
  O1          0.33544      0.77167      0.84769  1.0000
  O2          0.13381      0.20634      0.97402  1.0000
  O2          0.80231      0.92830      0.30681  1.0000
  O2          0.06956      0.87637      0.64071  1.0000
  O2          0.89983      0.80871      0.47744  1.0000
  O2          0.20246      0.08840      0.81171  1.0000
  O2          0.91775      0.11682      0.14518  1.0000
  O2          0.21881      0.13766      0.37101  1.0000
  O2          0.92711      0.79209      0.03784  1.0000
  O2          0.86171      0.07584      0.70292  1.0000
  O2          0.78908      0.88486      0.86526  1.0000
  O2          0.10071      0.22139      0.53392  1.0000
  O2          0.12322      0.91688      0.19884  1.0000
  O2          0.94180      0.86781      0.25682  1.0000
  O2          0.14328      0.07746      0.58918  1.0000
  O2          0.93027      0.06622      0.92371  1.0000
  O2          0.05899      0.12946      0.75465  1.0000
  O2          0.86442      0.92967      0.08787  1.0000
  O2          0.08777      0.93605      0.42138  1.0000
  O2          0.91887      0.20450      0.98868  1.0000
  O2          0.80534      0.71493      0.32077  1.0000
  O2          0.28665      0.09056      0.65588  1.0000
  O2          0.11980      0.81261      0.48588  1.0000
  O2          0.19236      0.30122      0.81523  1.0000
  O2          0.69934      0.89705      0.14829  1.0000
  O2          0.21773      0.92315      0.35522  1.0000
  O2          0.71431      0.79507      0.02192  1.0000
  O2          0.07724      0.29165      0.69289  1.0000
  O2          0.80971      0.11466      0.86138  1.0000
  O2          0.31573      0.21588      0.53006  1.0000
  O2          0.90280      0.69747      0.19643  1.0000
  O1          0.31556      0.62062      0.26081  1.0000
  O1          0.38816      0.69507      0.59429  1.0000
  O1          0.30407      0.68831      0.93011  1.0000
  O1          0.68979      0.38436      0.74986  1.0000
  O1          0.62052      0.30794      0.08209  1.0000
  O1          0.69979      0.31362      0.41731  1.0000
  O2          0.38019      0.34084      0.96906  1.0000
  O2          0.66956      0.04188      0.30225  1.0000
  O2          0.96230      0.62995      0.63855  1.0000
  O2          0.65393      0.67396      0.47932  1.0000
  O3          0.32875      0.97203      0.81183  1.0000
  O2          0.03067      0.36361      0.14753  1.0000
  O2          0.35231      0.38379      0.37463  1.0000
  O2          0.03955      0.65893      0.04228  1.0000
  O2          0.61642      0.96335      0.70728  1.0000
  O2          0.65715      0.63706      0.86387  1.0000
  O2          0.98058      0.34779      0.53417  1.0000
  O2          0.37099      0.03166      0.19743  1.0000
  O3          0.77867      0.29706      0.01390  1.0000
  O3          0.71418      0.48278      0.34796  1.0000
  O3          0.52005      0.22810      0.68062  1.0000
  O3          0.25688      0.72216      0.51861  1.0000
  O3          0.27791      0.52891      0.84740  1.0000
  O3          0.47075      0.75471      0.17961  1.0000
  O3          0.30917      0.78263      0.33007  1.0000
  O3          0.47978      0.70014      0.99788  1.0000
  O3          0.22216      0.52554      0.66900  1.0000
  O3          0.71721      0.25387      0.83078  1.0000
  O3          0.54612      0.30024      0.49928  1.0000
  O3          0.75731      0.46691      0.16437  1.0000
  O3          0.78937      0.54313      0.03390  1.0000
  O3          0.46700      0.24886      0.36751  1.0000
  O3          0.75204      0.21431      0.69965  1.0000
  O3          0.23337      0.46986      0.53554  1.0000
  O3          0.53951      0.77336      0.86358  1.0000
  O3          0.23273      0.77733      0.19635  1.0000
  O3          0.55376      0.79209      0.31075  1.0000
  O3          0.24482      0.45439      0.97835  1.0000
  O3          0.21328      0.77140      0.64908  1.0000
  O3          0.45303      0.22688      0.81579  1.0000
  O3          0.79118      0.55859      0.47979  1.0000
  O3          0.77673      0.22488      0.14689  1.0000
  O2          0.23191      0.33355      0.90069  1.0000
  O2          0.67080      0.90008      0.23349  1.0000
  O2          0.10755      0.77573      0.57036  1.0000
  O2          0.78492      0.67940      0.40577  1.0000
  O2          0.33096      0.11116      0.74049  1.0000
  O2          0.90150      0.22748      0.07355  1.0000
  O2          0.34898      0.24294      0.44436  1.0000
  O2          0.90247      0.66461      0.11113  1.0000
  O2          0.76331      0.10404      0.77636  1.0000
  O2          0.66696      0.77409      0.93710  1.0000
  O2          0.10497      0.33791      0.60782  1.0000
  O2          0.23665      0.90292      0.27032  1.0000
  O2          0.58944      0.56234      0.98639  1.0000
  O2          0.44989      0.03060      0.32042  1.0000
  O2          0.97298      0.41862      0.65710  1.0000
  O2          0.44766      0.45073      0.49962  1.0000
  O3          0.57058      0.00458      0.83577  1.0000
  O2          0.00511      0.56314      0.16829  1.0000
  O2          0.57262      0.58853      0.35454  1.0000
  O2          0.02668      0.43849      0.02378  1.0000
  O2          0.41040      0.98022      0.69099  1.0000
  O2          0.43218      0.43577      0.84336  1.0000
  O2          0.01024      0.57235      0.51393  1.0000
  O2          0.56796      0.00272      0.17708  1.0000
  O2          0.58125      0.15007      0.24635  1.0000
  O2          0.85879      0.43644      0.58139  1.0000
  O2          0.57195      0.42799      0.91218  1.0000
  O3          0.42218      0.84418      0.76010  1.0000
  O2          0.14707      0.57160      0.09863  1.0000
  O2          0.44643      0.58538      0.42836  1.0000
  F           0.42651      0.85490      0.24894  1.0000
  F           0.15132      0.58436      0.59527  1.0000
  F           0.42989      0.58111      0.91560  1.0000
  F           0.56386      0.14832      0.76338  1.0000
  F           0.85541      0.41881      0.09597  1.0000
  F           0.59356      0.44245      0.42948  1.0000
