data_cif

_audit_creation_method             'generated by GULP'

_symmetry_space_group_name_H-M     'P 1'
_symmetry_Int_Tables_number        1
_symmetry_cell_setting             triclinic

_cell_length_a                       12.0834
_cell_length_b                       12.0955
_cell_length_c                       29.7487
_cell_angle_alpha                   89.5389
_cell_angle_beta                    89.8142
_cell_angle_gamma                  119.9386

loop_
_atom_site_label
_atom_site_fract_x
_atom_site_fract_y
_atom_site_fract_z
_atom_site_occupancy
  Ge          0.69960      0.37570      0.03389  1.0000
  Ge          0.65309      0.32924      0.36412  1.0000
  Ge          0.67867      0.30493      0.69892  1.0000
  Si          0.32565      0.64551      0.52943  1.0000
  Si          0.37675      0.69784      0.86150  1.0000
  Ge          0.34130      0.69847      0.19536  1.0000
  Ge          0.41152      0.72349      0.29350  1.0000
  Ge          0.33942      0.61933      0.95901  1.0000
  Ge          0.29007      0.68073      0.62735  1.0000
  Si          0.62355      0.30364      0.80255  1.0000
  Ge          0.69304      0.40127      0.46235  1.0000
  Ge          0.74123      0.33619      0.13104  1.0000
  Si          0.52452      0.41886      0.96893  1.0000
  Si          0.61328      0.11363      0.29957  1.0000
  Ge          0.90305      0.48597      0.63268  1.0000
  Ge          0.49448      0.59570      0.46372  1.0000
  Ge          0.43385      0.91730      0.79273  1.0000
  Si          0.13187      0.52736      0.12786  1.0000
  Si          0.44940      0.54565      0.35965  1.0000
  Si          0.12106      0.57756      0.02524  1.0000
  Si          0.46685      0.88767      0.69386  1.0000
  Ge          0.57520      0.47709      0.86476  1.0000
  Si          0.90559      0.43692      0.52860  1.0000
  Si          0.56222      0.11801      0.19709  1.0000
  Si          0.29048      0.41029      0.85123  1.0000
  Si          0.62925      0.90131      0.18455  1.0000
  Si          0.12062      0.72340      0.51882  1.0000
  Si          0.73650      0.61504      0.35101  1.0000
  Si          0.39491      0.10410      0.68517  1.0000
  Si          0.90151      0.29297      0.01744  1.0000
  Si          0.41870      0.30832      0.48367  1.0000
  Si          0.92931      0.60920      0.14940  1.0000
  Si          0.70338      0.10147      0.81775  1.0000
  Si          0.60801      0.70596      0.98408  1.0000
  Si          0.11241      0.40831      0.65057  1.0000
  Si          0.32703      0.90970      0.31712  1.0000
  Si          0.24271      0.33917      0.95343  1.0000
  Si          0.69372      0.91230      0.28625  1.0000
  Si          0.10156      0.77317      0.62040  1.0000
  Si          0.78322      0.68299      0.45298  1.0000
  Si          0.33685      0.09917      0.78742  1.0000
  Si          0.92963      0.24430      0.11860  1.0000
  Si          0.36907      0.26430      0.38073  1.0000
  Si          0.92242      0.65903      0.04693  1.0000
  Si          0.74775      0.08867      0.71486  1.0000
  Si          0.65921      0.76013      0.88100  1.0000
  Si          0.11211      0.36321      0.54736  1.0000
  Si          0.28022      0.91928      0.21450  1.0000
  Si          0.97234      0.11564      0.96725  1.0000
  Si          0.91647      0.86422      0.29984  1.0000
  Si          0.15108      0.04394      0.63368  1.0000
  Si          0.05592      0.90475      0.46698  1.0000
  Si          0.11982      0.16404      0.80147  1.0000
  Si          0.87879      0.97248      0.13292  1.0000
  Si          0.15346      0.99071      0.36607  1.0000
  Si          0.86296      0.87514      0.03268  1.0000
  Si          0.02756      0.15439      0.70072  1.0000
  Si          0.88209      0.03682      0.86669  1.0000
  Si          0.16471      0.14100      0.53281  1.0000
  Si          0.00688      0.86152      0.19911  1.0000
  O2          0.93494      0.99565      0.99960  1.0000
  O2          0.03539      0.94348      0.33243  1.0000
  O2          0.07026      0.07800      0.66783  1.0000
  O2          0.08851      0.02217      0.49977  1.0000
  O2          0.00264      0.07443      0.83438  1.0000
  O2          0.95908      0.93281      0.16549  1.0000
  O3          0.37518      0.58568      0.32687  1.0000
  O3          0.42998      0.78017      0.65825  1.0000
  O3          0.23823      0.65366      0.99375  1.0000
  O3          0.66017      0.42572      0.83267  1.0000
  O3          0.61084      0.24148      0.16832  1.0000
  O3          0.79088      0.36302      0.49655  1.0000
  O3          0.57256      0.34129      0.99852  1.0000
  O1          0.76757      0.43378      0.66546  1.0000
  O3          0.68974      0.24086      0.32761  1.0000
  O3          0.43742      0.67884      0.49407  1.0000
  O3          0.26096      0.58168      0.15539  1.0000
  O3          0.34783      0.77585      0.82635  1.0000
  O2          0.12492      0.20236      0.97001  1.0000
  O2          0.82969      0.93040      0.30303  1.0000
  O2          0.08326      0.89159      0.63559  1.0000
  O2          0.90343      0.81744      0.46901  1.0000
  O2          0.22036      0.11511      0.80639  1.0000
  O2          0.94876      0.12584      0.13450  1.0000
  O2          0.23968      0.14354      0.36116  1.0000
  O2          0.92860      0.78833      0.02741  1.0000
  O2          0.87476      0.08892      0.69621  1.0000
  O2          0.78290      0.88666      0.86078  1.0000
  O2          0.11028      0.23812      0.52661  1.0000
  O2          0.16032      0.93195      0.19584  1.0000
  O2          0.96550      0.87088      0.24944  1.0000
  O2          0.14513      0.09260      0.58395  1.0000
  O2          0.92906      0.06515      0.91738  1.0000
  O2          0.06676      0.14467      0.75127  1.0000
  O2          0.87992      0.92453      0.08321  1.0000
  O2          0.10242      0.95520      0.41677  1.0000
  O2          0.90472      0.19698      0.98020  1.0000
  O2          0.83296      0.71564      0.31356  1.0000
  O2          0.29886      0.10534      0.64738  1.0000
  O2          0.12201      0.82216      0.48119  1.0000
  O2          0.18855      0.31338      0.81442  1.0000
  O2          0.73114      0.90992      0.14717  1.0000
  O2          0.23774      0.92518      0.35453  1.0000
  O2          0.71328      0.79378      0.02107  1.0000
  O2          0.09999      0.30246      0.68698  1.0000
  O2          0.81284      0.11702      0.85329  1.0000
  O2          0.31432      0.21346      0.52060  1.0000
  O2          0.94736      0.71363      0.18678  1.0000
  O1          0.32923      0.62895      0.24626  1.0000
  O3          0.38143      0.69495      0.57791  1.0000
  O3          0.32833      0.70288      0.91142  1.0000
  O3          0.68095      0.35488      0.75331  1.0000
  O1          0.63813      0.31856      0.08576  1.0000
  O1          0.70803      0.32061      0.41559  1.0000
  O2          0.36974      0.33864      0.97130  1.0000
  O2          0.69302      0.03906      0.30361  1.0000
  O3          0.97168      0.64969      0.63682  1.0000
  O3          0.65861      0.68586      0.47010  1.0000
  O3          0.32239      0.97070      0.80652  1.0000
  O2          0.05914      0.37314      0.13325  1.0000
  O2          0.36555      0.39033      0.36580  1.0000
  O2          0.04862      0.66114      0.02876  1.0000
  O2          0.62470      0.95929      0.69866  1.0000
  O3          0.67130      0.64129      0.86398  1.0000
  O2          0.98349      0.35851      0.53096  1.0000
  O2          0.40646      0.04729      0.19845  1.0000
  O3          0.76838      0.28880      0.01182  1.0000
  O3          0.74232      0.48738      0.34446  1.0000
  O3          0.52381      0.23788      0.67966  1.0000
  O2          0.25176      0.72059      0.51197  1.0000
  O2          0.29518      0.54498      0.84688  1.0000
  O3          0.50087      0.77025      0.17642  1.0000
  O3          0.32438      0.77931      0.32670  1.0000
  O3          0.48016      0.70792      0.99321  1.0000
  O3          0.24101      0.53697      0.65985  1.0000
  O2          0.69160      0.22917      0.82414  1.0000
  O3          0.54877      0.31167      0.49454  1.0000
  O3          0.80153      0.48168      0.16201  1.0000
  O3          0.79558      0.54102      0.02824  1.0000
  O3          0.48813      0.26119      0.35911  1.0000
  O3          0.74630      0.20940      0.69323  1.0000
  O2          0.23527      0.48946      0.52767  1.0000
  O2          0.53093      0.74825      0.86099  1.0000
  O3          0.27292      0.79604      0.19276  1.0000
  O3          0.57894      0.78671      0.30698  1.0000
  O3          0.23006      0.45215      0.97355  1.0000
  O3          0.22505      0.78237      0.64215  1.0000
  O2          0.46820      0.22352      0.80462  1.0000
  O3          0.79309      0.56789      0.47448  1.0000
  O3          0.80789      0.23428      0.14242  1.0000
  O2          0.23448      0.33642      0.89860  1.0000
  O2          0.69866      0.90754      0.23164  1.0000
  O2          0.11394      0.78567      0.56559  1.0000
  O2          0.79316      0.68550      0.39820  1.0000
  O2          0.32580      0.09617      0.73273  1.0000
  O2          0.91514      0.23189      0.06428  1.0000
  O2          0.36075      0.24578      0.43486  1.0000
  O2          0.92136      0.66963      0.10128  1.0000
  O2          0.76473      0.10117      0.76874  1.0000
  O2          0.67026      0.77017      0.93524  1.0000
  O2          0.11407      0.34949      0.60131  1.0000
  O2          0.26415      0.90973      0.26877  1.0000
  O2          0.58549      0.56163      0.98934  1.0000
  O2          0.47150      0.03012      0.32171  1.0000
  O3          0.98715      0.42172      0.65792  1.0000
  O3          0.43133      0.44672      0.48848  1.0000
  O3          0.57410      0.97515      0.82792  1.0000
  O2          0.05108      0.58637      0.15136  1.0000
  O2          0.59177      0.58216      0.34260  1.0000
  O2          0.01515      0.43652      0.00823  1.0000
  O2          0.42672      0.99228      0.67623  1.0000
  O3          0.42887      0.42844      0.84071  1.0000
  O2          0.00238      0.58265      0.51188  1.0000
  O2          0.60061      0.01673      0.17743  1.0000
  O2          0.61136      0.15481      0.24834  1.0000
  O3          0.85455      0.43664      0.57888  1.0000
  O3          0.56994      0.41962      0.91809  1.0000
  O3          0.40697      0.83013      0.74232  1.0000
  O2          0.16618      0.56738      0.07595  1.0000
  O3          0.45592      0.60310      0.40905  1.0000
  F           0.46445      0.86542      0.25565  1.0000
  F           0.14092      0.58796      0.59343  1.0000
  F           0.42895      0.56230      0.92504  1.0000
  F           0.52814      0.06853      0.75918  1.0000
  F           0.87600      0.42403      0.08944  1.0000
  F           0.60051      0.45284      0.42392  1.0000
