data_cif

_audit_creation_method             'generated by GULP'

_symmetry_space_group_name_H-M     'P 1'
_symmetry_Int_Tables_number        1
_symmetry_cell_setting             triclinic

_cell_length_a                       12.1107
_cell_length_b                       12.0606
_cell_length_c                       29.6444
_cell_angle_alpha                   89.0664
_cell_angle_beta                    89.6684
_cell_angle_gamma                  120.4389

loop_
_atom_site_label
_atom_site_fract_x
_atom_site_fract_y
_atom_site_fract_z
_atom_site_occupancy
  Si          0.69960      0.37570      0.03389  1.0000
  Ge          0.65583      0.33536      0.36915  1.0000
  Ge          0.68837      0.29744      0.70257  1.0000
  Si          0.33278      0.62900      0.52030  1.0000
  Si          0.38464      0.67446      0.85649  1.0000
  Si          0.34531      0.70077      0.18804  1.0000
  Ge          0.39903      0.70790      0.28682  1.0000
  Si          0.31354      0.64004      0.95953  1.0000
  Ge          0.31974      0.67313      0.61898  1.0000
  Si          0.63822      0.30500      0.80125  1.0000
  Si          0.70949      0.38072      0.46770  1.0000
  Si          0.73407      0.32895      0.13439  1.0000
  Ge          0.52254      0.41979      0.97316  1.0000
  Ge          0.59830      0.10397      0.30811  1.0000
  Ge          0.92509      0.47421      0.64140  1.0000
  Si          0.49493      0.58391      0.45156  1.0000
  Si          0.43311      0.88717      0.78770  1.0000
  Si          0.15153      0.54813      0.11741  1.0000
  Ge          0.45968      0.53303      0.34660  1.0000
  Ge          0.09168      0.58060      0.02166  1.0000
  Ge          0.48838      0.90125      0.68230  1.0000
  Si          0.58544      0.45737      0.86905  1.0000
  Si          0.91461      0.42476      0.53628  1.0000
  Si          0.56107      0.11798      0.20299  1.0000
  Ge          0.30159      0.38575      0.84662  1.0000
  Si          0.63228      0.90623      0.18672  1.0000
  Si          0.12918      0.71046      0.51638  1.0000
  Si          0.75076      0.60440      0.33987  1.0000
  Si          0.42160      0.12541      0.67475  1.0000
  Si          0.89694      0.30206      0.00499  1.0000
  Si          0.42388      0.29913      0.47115  1.0000
  Ge          0.93941      0.61867      0.14069  1.0000
  Si          0.71830      0.09987      0.80406  1.0000
  Si          0.59082      0.70825      0.97994  1.0000
  Si          0.14427      0.40320      0.64759  1.0000
  Si          0.30521      0.87970      0.31419  1.0000
  Ge          0.25923      0.36407      0.94841  1.0000
  Si          0.68189      0.89847      0.28878  1.0000
  Si          0.13106      0.76502      0.61858  1.0000
  Si          0.77722      0.66128      0.44311  1.0000
  Si          0.35815      0.09366      0.77818  1.0000
  Si          0.94382      0.26411      0.10597  1.0000
  Si          0.37460      0.24260      0.36907  1.0000
  Si          0.90562      0.66780      0.03881  1.0000
  Si          0.77868      0.10671      0.70177  1.0000
  Si          0.66359      0.74139      0.87785  1.0000
  Si          0.11812      0.34702      0.54433  1.0000
  Si          0.27724      0.91219      0.21058  1.0000
  Ge          0.97001      0.12688      0.95983  1.0000
  Si          0.91587      0.86268      0.29357  1.0000
  Si          0.17162      0.03757      0.62594  1.0000
  Si          0.04972      0.88228      0.46264  1.0000
  Si          0.13081      0.13800      0.79263  1.0000
  Si          0.87821      0.98367      0.12834  1.0000
  Si          0.14207      0.96900      0.36101  1.0000
  Si          0.83592      0.88061      0.02779  1.0000
  Si          0.04918      0.14315      0.69248  1.0000
  Si          0.88663      0.01871      0.85770  1.0000
  Si          0.17051      0.12650      0.52459  1.0000
  Si          0.00570      0.86833      0.19274  1.0000
  O3          0.92494      0.99712      0.99610  1.0000
  O2          0.02950      0.94411      0.32745  1.0000
  O2          0.07889      0.06373      0.65667  1.0000
  O2          0.08547      0.00506      0.49317  1.0000
  O2          0.00796      0.05334      0.82534  1.0000
  O2          0.97050      0.94934      0.15719  1.0000
  O1          0.36587      0.56340      0.31357  1.0000
  O1          0.45775      0.77847      0.64879  1.0000
  O3          0.22506      0.68054      0.98430  1.0000
  O2          0.66608      0.40661      0.84075  1.0000
  O2          0.61789      0.24176      0.16905  1.0000
  O2          0.78605      0.35340      0.50676  1.0000
  O3          0.56957      0.33649      0.00967  1.0000
  O1          0.79964      0.44144      0.67471  1.0000
  O1          0.68982      0.22836      0.34094  1.0000
  O2          0.43835      0.65566      0.48133  1.0000
  O2          0.27689      0.59737      0.14877  1.0000
  O2          0.35985      0.76466      0.82197  1.0000
  O1          0.11947      0.23114      0.97244  1.0000
  O2          0.81604      0.90962      0.30342  1.0000
  O2          0.12087      0.88803      0.63378  1.0000
  O2          0.89623      0.78744      0.46509  1.0000
  O2          0.23081      0.08624      0.79957  1.0000
  O2          0.94617      0.13889      0.12574  1.0000
  O2          0.24196      0.11871      0.35365  1.0000
  O2          0.87586      0.77458      0.01934  1.0000
  O2          0.90079      0.09505      0.68588  1.0000
  O2          0.79065      0.86373      0.85640  1.0000
  O2          0.11164      0.22060      0.52286  1.0000
  O2          0.15920      0.92190      0.18896  1.0000
  O2          0.96890      0.89251      0.24227  1.0000
  O2          0.16024      0.07136      0.57444  1.0000
  O3          0.93699      0.06188      0.90672  1.0000
  O2          0.07803      0.11142      0.74220  1.0000
  O2          0.85768      0.92434      0.07944  1.0000
  O2          0.09108      0.93444      0.41209  1.0000
  O3          0.87429      0.19513      0.96932  1.0000
  O2          0.85231      0.71052      0.30366  1.0000
  O2          0.31935      0.12488      0.63944  1.0000
  O2          0.11890      0.80383      0.47845  1.0000
  O3          0.20671      0.28719      0.80292  1.0000
  O2          0.73688      0.92133      0.14963  1.0000
  O2          0.20304      0.88141      0.34930  1.0000
  O2          0.68469      0.81600      0.01558  1.0000
  O2          0.13720      0.29591      0.68317  1.0000
  O2          0.80781      0.08735      0.84181  1.0000
  O2          0.31923      0.20644      0.50918  1.0000
  O3          0.93660      0.71953      0.18199  1.0000
  O3          0.33109      0.62842      0.23436  1.0000
  O3          0.40271      0.69044      0.56579  1.0000
  O2          0.32412      0.67449      0.90517  1.0000
  O3          0.69987      0.37773      0.75506  1.0000
  O2          0.67226      0.33446      0.08683  1.0000
  O3          0.72023      0.31983      0.42231  1.0000
  O1          0.36172      0.32445      0.97678  1.0000
  O3          0.68935      0.02797      0.30391  1.0000
  O3          0.00137      0.64259      0.63548  1.0000
  O2          0.64953      0.66263      0.45815  1.0000
  O2          0.35440      0.96243      0.79308  1.0000
  O2          0.07572      0.38979      0.12061  1.0000
  O3          0.36830      0.36430      0.35182  1.0000
  O3          0.03298      0.68930      0.01518  1.0000
  O3          0.65586      0.97792      0.68641  1.0000
  O2          0.66623      0.61405      0.86409  1.0000
  O2          0.98998      0.34625      0.52886  1.0000
  O2          0.40723      0.04323      0.19586  1.0000
  O2          0.76282      0.30077      0.01042  1.0000
  O3          0.76137      0.47899      0.33667  1.0000
  O3          0.54922      0.26115      0.67008  1.0000
  O2          0.25212      0.69748      0.50271  1.0000
  O3          0.31555      0.53490      0.83514  1.0000
  O2          0.49703      0.78472      0.17241  1.0000
  O3          0.29438      0.74338      0.31889  1.0000
  O2          0.46016      0.71280      0.97883  1.0000
  O3          0.28098      0.52878      0.65079  1.0000
  O2          0.70631      0.22286      0.81753  1.0000
  O2          0.55918      0.31197      0.48498  1.0000
  O3          0.80804      0.46933      0.15463  1.0000
  O2          0.78150      0.53039      0.02584  1.0000
  O3          0.49210      0.23297      0.34958  1.0000
  O3          0.78972      0.23500      0.68170  1.0000
  O2          0.24235      0.47245      0.52344  1.0000
  O2          0.53848      0.73597      0.85746  1.0000
  O2          0.28008      0.79157      0.18946  1.0000
  O3          0.56228      0.77115      0.30902  1.0000
  O3          0.24161      0.48761      0.97032  1.0000
  O3          0.25696      0.77439      0.63852  1.0000
  O2          0.48213      0.21364      0.79943  1.0000
  O2          0.77551      0.53697      0.46441  1.0000
  O2          0.82415      0.26666      0.12926  1.0000
  O1          0.20968      0.31003      0.89285  1.0000
  O2          0.68362      0.88349      0.23363  1.0000
  O2          0.14650      0.78207      0.56312  1.0000
  O2          0.79647      0.67359      0.38906  1.0000
  O2          0.35138      0.10447      0.72420  1.0000
  O2          0.92978      0.25021      0.05215  1.0000
  O2          0.37021      0.22665      0.42453  1.0000
  O3          0.91927      0.68790      0.09282  1.0000
  O2          0.79315      0.11941      0.75706  1.0000
  O2          0.66697      0.75570      0.93171  1.0000
  O2          0.12153      0.33438      0.59834  1.0000
  O2          0.25830      0.90156      0.26457  1.0000
  O3          0.57071      0.57165      0.99456  1.0000
  O3          0.44518      0.99386      0.32752  1.0000
  O3          0.03314      0.43225      0.66179  1.0000
  O2          0.43501      0.43799      0.47101  1.0000
  O2          0.57879      0.97188      0.80503  1.0000
  O3          0.07370      0.60677      0.14350  1.0000
  O3          0.61093      0.57640      0.32598  1.0000
  O3          0.01123      0.43913      0.98915  1.0000
  O3          0.44581      0.01014      0.66229  1.0000
  O3          0.45022      0.39694      0.84404  1.0000
  O2          0.00097      0.57085      0.51666  1.0000
  O2          0.62386      0.03508      0.18628  1.0000
  O3          0.59381      0.16134      0.25337  1.0000
  O3          0.87297      0.41437      0.58727  1.0000
  O3          0.58647      0.41631      0.92042  1.0000
  O3          0.42634      0.84393      0.73723  1.0000
  O3          0.19732      0.60053      0.06762  1.0000
  O3          0.46376      0.59234      0.40059  1.0000
  F           0.46274      0.86304      0.25662  1.0000
  F           0.16756      0.58096      0.58878  1.0000
  F           0.41784      0.50199      0.91786  1.0000
  F           0.59458      0.14291      0.73317  1.0000
  F           0.95788      0.49124      0.06663  1.0000
  F           0.59450      0.42749      0.39889  1.0000
