data_cif

_audit_creation_method             'generated by GULP'

_symmetry_space_group_name_H-M     'P 1'
_symmetry_Int_Tables_number        1
_symmetry_cell_setting             triclinic

_cell_length_a                       12.1124
_cell_length_b                       12.1139
_cell_length_c                       29.6122
_cell_angle_alpha                   88.8014
_cell_angle_beta                    90.4915
_cell_angle_gamma                  120.2586

loop_
_atom_site_label
_atom_site_fract_x
_atom_site_fract_y
_atom_site_fract_z
_atom_site_occupancy
  Si          0.69960      0.37570      0.03389  1.0000
  Si          0.66981      0.32838      0.36903  1.0000
  Si          0.69819      0.30904      0.70155  1.0000
  Si          0.33773      0.64517      0.53166  1.0000
  Si          0.39805      0.69307      0.86741  1.0000
  Si          0.35026      0.69622      0.19880  1.0000
  Ge          0.42205      0.72175      0.29692  1.0000
  Si          0.34074      0.63074      0.97029  1.0000
  Ge          0.30972      0.67811      0.63070  1.0000
  Si          0.64249      0.30668      0.80432  1.0000
  Ge          0.70064      0.40118      0.46666  1.0000
  Ge          0.74681      0.33387      0.13085  1.0000
  Ge          0.53733      0.43218      0.96535  1.0000
  Ge          0.61768      0.11056      0.30373  1.0000
  Ge          0.92334      0.48291      0.63793  1.0000
  Ge          0.50205      0.59049      0.46627  1.0000
  Ge          0.44630      0.91100      0.79767  1.0000
  Si          0.13479      0.52852      0.13469  1.0000
  Si          0.45949      0.53922      0.36127  1.0000
  Si          0.12550      0.58597      0.03170  1.0000
  Si          0.48484      0.88387      0.69754  1.0000
  Si          0.60826      0.47868      0.86596  1.0000
  Si          0.91595      0.43604      0.53304  1.0000
  Si          0.56956      0.11772      0.19867  1.0000
  Ge          0.31918      0.40717      0.85287  1.0000
  Si          0.63474      0.89921      0.18945  1.0000
  Si          0.13292      0.72340      0.52318  1.0000
  Si          0.74571      0.61038      0.35538  1.0000
  Ge          0.41395      0.10325      0.68638  1.0000
  Ge          0.90782      0.29810      0.02215  1.0000
  Si          0.42748      0.30439      0.48771  1.0000
  Si          0.92913      0.60431      0.15373  1.0000
  Si          0.72064      0.10474      0.82098  1.0000
  Si          0.61944      0.70533      0.98860  1.0000
  Si          0.13254      0.40471      0.65389  1.0000
  Si          0.32982      0.89753      0.32184  1.0000
  Ge          0.25794      0.33928      0.95709  1.0000
  Si          0.70354      0.90975      0.29186  1.0000
  Si          0.12198      0.77170      0.62557  1.0000
  Si          0.79142      0.68092      0.45733  1.0000
  Ge          0.35152      0.09568      0.79085  1.0000
  Si          0.93647      0.24321      0.12451  1.0000
  Si          0.38684      0.26011      0.38395  1.0000
  Si          0.92207      0.65744      0.05085  1.0000
  Si          0.76431      0.09374      0.71813  1.0000
  Si          0.67923      0.75499      0.88553  1.0000
  Si          0.12308      0.36200      0.55010  1.0000
  Si          0.28880      0.91213      0.21818  1.0000
  Si          0.97394      0.11875      0.97269  1.0000
  Si          0.92691      0.85906      0.30409  1.0000
  Si          0.16582      0.04368      0.63598  1.0000
  Si          0.06479      0.90352      0.47033  1.0000
  Si          0.13369      0.16056      0.80423  1.0000
  Si          0.88398      0.97045      0.13899  1.0000
  Si          0.16491      0.98485      0.36945  1.0000
  Si          0.86446      0.87786      0.03799  1.0000
  Si          0.04184      0.14877      0.70323  1.0000
  Si          0.89725      0.03657      0.87117  1.0000
  Si          0.17093      0.13813      0.53538  1.0000
  Si          0.01358      0.85516      0.20328  1.0000
  O2          0.94167      0.99683      0.00455  1.0000
  O2          0.04598      0.94447      0.33622  1.0000
  O2          0.07822      0.06958      0.66976  1.0000
  O2          0.09530      0.02258      0.50124  1.0000
  O2          0.01447      0.07880      0.83768  1.0000
  O2          0.96691      0.93041      0.17055  1.0000
  O3          0.38494      0.57798      0.32738  1.0000
  O3          0.44868      0.77273      0.66364  1.0000
  O2          0.25261      0.66835      0.00100  1.0000
  O2          0.68646      0.43732      0.83197  1.0000
  O3          0.61089      0.23326      0.16571  1.0000
  O3          0.79959      0.36294      0.50108  1.0000
  O3          0.59101      0.34705      0.99956  1.0000
  O3          0.78959      0.43261      0.67243  1.0000
  O3          0.70230      0.24802      0.33536  1.0000
  O3          0.44619      0.67600      0.49537  1.0000
  O2          0.26837      0.58727      0.16198  1.0000
  O3          0.36604      0.77638      0.83602  1.0000
  O3          0.11963      0.21904      0.98228  1.0000
  O2          0.83841      0.92206      0.30695  1.0000
  O2          0.11108      0.89222      0.64220  1.0000
  O2          0.91232      0.81630      0.47235  1.0000
  O3          0.22912      0.10933      0.81498  1.0000
  O2          0.95211      0.12331      0.14269  1.0000
  O2          0.26367      0.13607      0.36269  1.0000
  O2          0.91886      0.78165      0.03130  1.0000
  O2          0.89035      0.09678      0.69832  1.0000
  O2          0.80199      0.88413      0.86607  1.0000
  O2          0.11998      0.23782      0.52870  1.0000
  O2          0.16605      0.91678      0.19769  1.0000
  O2          0.97899      0.86797      0.25400  1.0000
  O2          0.14269      0.08050      0.58568  1.0000
  O2          0.95040      0.07024      0.92143  1.0000
  O2          0.07738      0.12832      0.75360  1.0000
  O2          0.88658      0.92614      0.08876  1.0000
  O2          0.11383      0.95509      0.42020  1.0000
  O3          0.89367      0.18698      0.98224  1.0000
  O2          0.84663      0.70919      0.31805  1.0000
  O3          0.31506      0.11625      0.64529  1.0000
  O2          0.13195      0.82298      0.48592  1.0000
  O3          0.21123      0.31135      0.81096  1.0000
  O2          0.73467      0.90273      0.15254  1.0000
  O2          0.23472      0.90546      0.35835  1.0000
  O2          0.71371      0.80710      0.02592  1.0000
  O2          0.12286      0.29818      0.69017  1.0000
  O2          0.82406      0.11347      0.85823  1.0000
  O2          0.32145      0.20921      0.52444  1.0000
  O2          0.94436      0.70622      0.19123  1.0000
  O3          0.34289      0.63381      0.24701  1.0000
  O3          0.39748      0.69479      0.58019  1.0000
  O2          0.35173      0.68770      0.91980  1.0000
  O2          0.69437      0.34894      0.75321  1.0000
  O3          0.64940      0.32631      0.08448  1.0000
  O3          0.71770      0.32321      0.41876  1.0000
  O1          0.37739      0.31999      0.97837  1.0000
  O3          0.71097      0.03924      0.30808  1.0000
  O3          0.99257      0.64678      0.64236  1.0000
  O3          0.66653      0.68471      0.47268  1.0000
  O1          0.33331      0.95575      0.81115  1.0000
  O2          0.06587      0.37445      0.14020  1.0000
  O2          0.38069      0.38284      0.36601  1.0000
  O2          0.05441      0.66932      0.03326  1.0000
  O2          0.64245      0.96167      0.70319  1.0000
  O2          0.69182      0.63542      0.86863  1.0000
  O2          0.99349      0.35757      0.53480  1.0000
  O2          0.41306      0.04192      0.20203  1.0000
  O3          0.76660      0.29508      0.01687  1.0000
  O2          0.74650      0.47802      0.35103  1.0000
  O3          0.55702      0.24724      0.68161  1.0000
  O2          0.26359      0.72111      0.51515  1.0000
  O3          0.31900      0.54803      0.84987  1.0000
  O2          0.49961      0.76874      0.18151  1.0000
  O3          0.32764      0.76658      0.33034  1.0000
  O2          0.48201      0.69828      0.99314  1.0000
  O3          0.26240      0.53280      0.66273  1.0000
  O2          0.71122      0.23315      0.82694  1.0000
  O3          0.55689      0.30682      0.49919  1.0000
  O3          0.80204      0.47439      0.16409  1.0000
  O2          0.80319      0.53077      0.03173  1.0000
  O2          0.51390      0.26382      0.36585  1.0000
  O2          0.75547      0.21345      0.69748  1.0000
  O2          0.24558      0.48917      0.53013  1.0000
  O2          0.55036      0.74240      0.86575  1.0000
  O2          0.28982      0.79002      0.19807  1.0000
  O3          0.58757      0.78493      0.31349  1.0000
  O3          0.26322      0.47891      0.97467  1.0000
  O3          0.24646      0.77951      0.64647  1.0000
  O3          0.49087      0.22991      0.80975  1.0000
  O3          0.80186      0.56734      0.48043  1.0000
  O3          0.81108      0.23057      0.14550  1.0000
  O1          0.23965      0.31761      0.89977  1.0000
  O2          0.70123      0.89990      0.23680  1.0000
  O2          0.13031      0.78503      0.57045  1.0000
  O2          0.80345      0.68110      0.40237  1.0000
  O1          0.32971      0.09697      0.73331  1.0000
  O3          0.93143      0.22953      0.07034  1.0000
  O2          0.37091      0.24321      0.43820  1.0000
  O2          0.92352      0.66693      0.10518  1.0000
  O2          0.78199      0.10503      0.77218  1.0000
  O2          0.68610      0.76599      0.93980  1.0000
  O2          0.12909      0.34628      0.60418  1.0000
  O2          0.27176      0.90380      0.27237  1.0000
  O3          0.61086      0.57314      0.99861  1.0000
  O3          0.46998      0.02043      0.32924  1.0000
  O3          0.00821      0.41823      0.66231  1.0000
  O3          0.43930      0.44247      0.49263  1.0000
  O3          0.59036      0.97735      0.83001  1.0000
  O2          0.05258      0.58477      0.15704  1.0000
  O2          0.60462      0.58449      0.34528  1.0000
  O3          0.03460      0.44979      0.00993  1.0000
  O3          0.44270      0.98245      0.67596  1.0000
  O3          0.46982      0.43087      0.84291  1.0000
  O2          0.01352      0.58265      0.51663  1.0000
  O2          0.61356      0.01833      0.18231  1.0000
  O3          0.61997      0.16286      0.24946  1.0000
  O3          0.86920      0.43478      0.58423  1.0000
  O3          0.60569      0.41752      0.91427  1.0000
  O3          0.42560      0.82823      0.74709  1.0000
  O2          0.16915      0.57059      0.08227  1.0000
  O3          0.46019      0.59200      0.41105  1.0000
  F           0.47883      0.87217      0.26340  1.0000
  F           0.15805      0.58609      0.59739  1.0000
  F           0.46939      0.51803      0.92790  1.0000
  F           0.52978      0.06821      0.76128  1.0000
  F           0.88997      0.42103      0.09322  1.0000
  F           0.60836      0.45468      0.43033  1.0000
