data_cif

_audit_creation_method             'generated by GULP'

_symmetry_space_group_name_H-M     'P 1'
_symmetry_Int_Tables_number        1
_symmetry_cell_setting             triclinic

_cell_length_a                       12.1215
_cell_length_b                       12.0709
_cell_length_c                       29.7026
_cell_angle_alpha                   91.4996
_cell_angle_beta                    89.1604
_cell_angle_gamma                  120.0046

loop_
_atom_site_label
_atom_site_fract_x
_atom_site_fract_y
_atom_site_fract_z
_atom_site_occupancy
  Si          0.69960      0.37570      0.03389  1.0000
  Ge          0.61871      0.34903      0.36718  1.0000
  Si          0.66639      0.29660      0.69750  1.0000
  Si          0.30404      0.62641      0.53131  1.0000
  Si          0.36142      0.67450      0.86732  1.0000
  Ge          0.33946      0.72752      0.20291  1.0000
  Ge          0.38535      0.71056      0.30130  1.0000
  Si          0.31055      0.62692      0.97031  1.0000
  Si          0.29839      0.68418      0.63370  1.0000
  Si          0.61633      0.30353      0.80096  1.0000
  Si          0.70090      0.38284      0.46386  1.0000
  Si          0.71565      0.33346      0.13522  1.0000
  Ge          0.53011      0.41490      0.96832  1.0000
  Si          0.58603      0.13137      0.29996  1.0000
  Ge          0.87917      0.46816      0.63215  1.0000
  Si          0.48620      0.58872      0.46972  1.0000
  Si          0.40330      0.87710      0.80104  1.0000
  Si          0.13376      0.54833      0.13426  1.0000
  Si          0.42490      0.53968      0.36718  1.0000
  Ge          0.08878      0.56911      0.03603  1.0000
  Ge          0.46673      0.90637      0.70238  1.0000
  Ge          0.55909      0.46884      0.86745  1.0000
  Ge          0.91258      0.43223      0.53275  1.0000
  Si          0.53409      0.12107      0.19710  1.0000
  Ge          0.28134      0.38926      0.84717  1.0000
  Si          0.61069      0.91151      0.18133  1.0000
  Si          0.10483      0.70581      0.51116  1.0000
  Si          0.70775      0.62007      0.34675  1.0000
  Si          0.38405      0.09721      0.68244  1.0000
  Si          0.89989      0.29607      0.01291  1.0000
  Si          0.41804      0.30582      0.47788  1.0000
  Si          0.91594      0.61511      0.14746  1.0000
  Ge          0.69236      0.09530      0.81057  1.0000
  Si          0.59001      0.70166      0.98316  1.0000
  Si          0.09650      0.40078      0.64591  1.0000
  Si          0.30230      0.91419      0.31124  1.0000
  Ge          0.24564      0.33738      0.95244  1.0000
  Si          0.66754      0.92979      0.28372  1.0000
  Si          0.08339      0.75032      0.61397  1.0000
  Si          0.76290      0.66624      0.44986  1.0000
  Si          0.33385      0.08581      0.78567  1.0000
  Si          0.92873      0.26609      0.11493  1.0000
  Si          0.34017      0.25523      0.37704  1.0000
  Si          0.90529      0.66243      0.04572  1.0000
  Si          0.74645      0.08793      0.70701  1.0000
  Si          0.64687      0.74905      0.88097  1.0000
  Si          0.09629      0.33909      0.54365  1.0000
  Si          0.25177      0.92288      0.20933  1.0000
  Ge          0.96130      0.11030      0.96349  1.0000
  Si          0.88275      0.87154      0.29667  1.0000
  Si          0.15014      0.03348      0.62679  1.0000
  Si          0.04109      0.88490      0.46240  1.0000
  Ge          0.10378      0.13785      0.79200  1.0000
  Si          0.86199      0.98842      0.13071  1.0000
  Si          0.12010      0.98275      0.36254  1.0000
  Si          0.83665      0.87609      0.03117  1.0000
  Si          0.02522      0.15031      0.68962  1.0000
  Si          0.87087      0.02612      0.86051  1.0000
  Si          0.17160      0.12828      0.52693  1.0000
  Si          0.97832      0.86778      0.19618  1.0000
  O3          0.91338      0.97312      0.99273  1.0000
  O2          0.00369      0.94467      0.32905  1.0000
  O2          0.05519      0.07260      0.65095  1.0000
  O2          0.08696      0.01247      0.49247  1.0000
  O3          0.96851      0.03684      0.82164  1.0000
  O2          0.93766      0.94163      0.16180  1.0000
  O3          0.34949      0.59457      0.34157  1.0000
  O3          0.41208      0.76810      0.66549  1.0000
  O3          0.22414      0.65996      0.00009  1.0000
  O3          0.64914      0.42503      0.82987  1.0000
  O2          0.59407      0.24871      0.16688  1.0000
  O3          0.77932      0.34942      0.49641  1.0000
  O3          0.57450      0.33497      0.00614  1.0000
  O3          0.75296      0.42293      0.67021  1.0000
  O3          0.65737      0.25414      0.32979  1.0000
  O2          0.43241      0.66066      0.50249  1.0000
  O3          0.24403      0.58943      0.16908  1.0000
  O2          0.32938      0.76693      0.83840  1.0000
  O1          0.11481      0.21115      0.97739  1.0000
  O2          0.79975      0.94182      0.30169  1.0000
  O2          0.09408      0.88257      0.63328  1.0000
  O2          0.88974      0.78990      0.47034  1.0000
  O3          0.21396      0.09132      0.80595  1.0000
  O2          0.92856      0.14225      0.13558  1.0000
  O2          0.20086      0.13673      0.36277  1.0000
  O2          0.88604      0.77588      0.02837  1.0000
  O2          0.87569      0.10111      0.68522  1.0000
  O2          0.76018      0.87806      0.86078  1.0000
  O2          0.11487      0.22260      0.52529  1.0000
  O2          0.13156      0.93717      0.19304  1.0000
  O2          0.93183      0.87918      0.24584  1.0000
  O2          0.15900      0.06720      0.57488  1.0000
  O3          0.94602      0.07054      0.90696  1.0000
  O3          0.06334      0.11546      0.73584  1.0000
  O2          0.86749      0.94784      0.07940  1.0000
  O2          0.06449      0.92580      0.41097  1.0000
  O3          0.87302      0.18317      0.97706  1.0000
  O2          0.79627      0.72412      0.30980  1.0000
  O2          0.29154      0.11380      0.64761  1.0000
  O2          0.11876      0.81328      0.47538  1.0000
  O1          0.16802      0.29392      0.80683  1.0000
  O2          0.71490      0.92356      0.14438  1.0000
  O2          0.20881      0.92414      0.34848  1.0000
  O2          0.68486      0.80319      0.02124  1.0000
  O2          0.10217      0.30391      0.68219  1.0000
  O3          0.80288      0.10674      0.85020  1.0000
  O2          0.32181      0.20761      0.51522  1.0000
  O2          0.91654      0.71658      0.18464  1.0000
  O1          0.32723      0.63627      0.25090  1.0000
  O2          0.34636      0.68036      0.58203  1.0000
  O2          0.30709      0.66367      0.91789  1.0000
  O2          0.65891      0.33849      0.74877  1.0000
  O2          0.66222      0.33263      0.08575  1.0000
  O3          0.70061      0.33209      0.41356  1.0000
  O1          0.36780      0.31455      0.96845  1.0000
  O2          0.67163      0.06100      0.29833  1.0000
  O3          0.95150      0.63653      0.63193  1.0000
  O2          0.64073      0.67300      0.47052  1.0000
  O2          0.32113      0.95108      0.79983  1.0000
  O2          0.05817      0.38949      0.13147  1.0000
  O2          0.33989      0.38492      0.36285  1.0000
  O3          0.03311      0.67922      0.02497  1.0000
  O3          0.62982      0.95756      0.68864  1.0000
  O3          0.66074      0.63467      0.86003  1.0000
  O3          0.96949      0.32182      0.52267  1.0000
  O2          0.38045      0.05107      0.19217  1.0000
  O2          0.76973      0.30361      0.01174  1.0000
  O3          0.70987      0.49287      0.33518  1.0000
  O2          0.52384      0.22339      0.67626  1.0000
  O2          0.23627      0.69810      0.50848  1.0000
  O3          0.29059      0.53723      0.84295  1.0000
  O3          0.48404      0.78171      0.17099  1.0000
  O3          0.29637      0.78180      0.31999  1.0000
  O2          0.45984      0.70641      0.98633  1.0000
  O2          0.22646      0.53659      0.65084  1.0000
  O3          0.69363      0.23673      0.81883  1.0000
  O2          0.55083      0.30819      0.48179  1.0000
  O2          0.78680      0.47862      0.15550  1.0000
  O2          0.78106      0.52991      0.02851  1.0000
  O3          0.45067      0.24305      0.35324  1.0000
  O2          0.73574      0.21124      0.69151  1.0000
  O2          0.21862      0.47266      0.52744  1.0000
  O2          0.51433      0.73772      0.86554  1.0000
  O3          0.24210      0.79700      0.18871  1.0000
  O3          0.55055      0.80913      0.30611  1.0000
  O3          0.26592      0.47801      0.97512  1.0000
  O2          0.19749      0.73508      0.63396  1.0000
  O2          0.46479      0.19981      0.80577  1.0000
  O2          0.75848      0.53905      0.46622  1.0000
  O2          0.80648      0.27149      0.13502  1.0000
  O1          0.20718      0.31266      0.89618  1.0000
  O2          0.67306      0.91376      0.22961  1.0000
  O2          0.09146      0.76384      0.55981  1.0000
  O2          0.77042      0.68228      0.39591  1.0000
  O2          0.32312      0.09628      0.73178  1.0000
  O2          0.91801      0.24206      0.06105  1.0000
  O2          0.34239      0.24379      0.43155  1.0000
  O2          0.91027      0.67553      0.10049  1.0000
  O3          0.76591      0.08968      0.76078  1.0000
  O2          0.66085      0.75763      0.93538  1.0000
  O2          0.08946      0.32994      0.59809  1.0000
  O2          0.24153      0.92121      0.26399  1.0000
  O3          0.57271      0.56481      0.99242  1.0000
  O2          0.44628      0.02824      0.31872  1.0000
  O3          0.97615      0.41660      0.65653  1.0000
  O2          0.43791      0.44716      0.48818  1.0000
  O3          0.54575      0.96493      0.82126  1.0000
  O2          0.03639      0.59689      0.15358  1.0000
  O2          0.56339      0.59734      0.34286  1.0000
  O3          0.02461      0.42517      0.00025  1.0000
  O3          0.38531      0.96906      0.67113  1.0000
  O1          0.41984      0.39213      0.83422  1.0000
  O3          0.98448      0.57351      0.49865  1.0000
  O2          0.58935      0.03360      0.17649  1.0000
  O2          0.57490      0.16723      0.24826  1.0000
  O1          0.81463      0.40501      0.58127  1.0000
  O1          0.59287      0.41301      0.91666  1.0000
  O3          0.39994      0.81505      0.75259  1.0000
  O3          0.18495      0.59903      0.08480  1.0000
  O2          0.43605      0.58524      0.41959  1.0000
  F           0.42961      0.87214      0.24161  1.0000
  F           0.05046      0.52496      0.57292  1.0000
  F           0.45014      0.50799      0.90827  1.0000
  F           0.52785      0.05287      0.74032  1.0000
  F           0.94556      0.47799      0.07185  1.0000
  F           0.56583      0.43808      0.40430  1.0000
