data_cif

_audit_creation_method             'generated by GULP'

_symmetry_space_group_name_H-M     'P 1'
_symmetry_Int_Tables_number        1
_symmetry_cell_setting             triclinic

_cell_length_a                       11.9789
_cell_length_b                       12.1266
_cell_length_c                       29.6590
_cell_angle_alpha                   90.8825
_cell_angle_beta                    89.1455
_cell_angle_gamma                  119.6003

loop_
_atom_site_label
_atom_site_fract_x
_atom_site_fract_y
_atom_site_fract_z
_atom_site_occupancy
  Si          0.69960      0.37570      0.03389  1.0000
  Si          0.65126      0.33375      0.36611  1.0000
  Si          0.71717      0.33555      0.69681  1.0000
  Si          0.31792      0.62202      0.52548  1.0000
  Si          0.39146      0.69591      0.86105  1.0000
  Si          0.35169      0.71854      0.19202  1.0000
  Si          0.39661      0.69987      0.29376  1.0000
  Ge          0.35164      0.63301      0.95934  1.0000
  Ge          0.33124      0.68395      0.62931  1.0000
  Si          0.63953      0.31620      0.79877  1.0000
  Si          0.69516      0.39431      0.46816  1.0000
  Ge          0.74454      0.34945      0.13077  1.0000
  Ge          0.54064      0.43782      0.96935  1.0000
  Ge          0.61165      0.11735      0.29983  1.0000
  Ge          0.94692      0.50027      0.63355  1.0000
  Ge          0.48761      0.57486      0.45661  1.0000
  Si          0.43030      0.89782      0.79245  1.0000
  Si          0.13337      0.53898      0.13074  1.0000
  Ge          0.43324      0.53074      0.35708  1.0000
  Ge          0.12573      0.57767      0.02544  1.0000
  Ge          0.50247      0.91286      0.68971  1.0000
  Si          0.59906      0.48553      0.86514  1.0000
  Si          0.89950      0.42688      0.53507  1.0000
  Si          0.56984      0.14091      0.19689  1.0000
  Si          0.31087      0.41248      0.85275  1.0000
  Ge          0.63582      0.92171      0.18249  1.0000
  Si          0.11532      0.70795      0.52086  1.0000
  Si          0.72700      0.61076      0.34781  1.0000
  Ge          0.43984      0.12889      0.68267  1.0000
  Si          0.90202      0.29241      0.02002  1.0000
  Si          0.40792      0.30656      0.48248  1.0000
  Si          0.92553      0.62062      0.14898  1.0000
  Si          0.71319      0.11131      0.81215  1.0000
  Si          0.62176      0.72618      0.98572  1.0000
  Si          0.13102      0.40638      0.65150  1.0000
  Si          0.32705      0.90680      0.31492  1.0000
  Si          0.24990      0.35034      0.95512  1.0000
  Ge          0.68088      0.91107      0.28327  1.0000
  Si          0.12733      0.77649      0.62308  1.0000
  Si          0.76965      0.67660      0.45016  1.0000
  Ge          0.35465      0.10382      0.78067  1.0000
  Si          0.93441      0.25624      0.12223  1.0000
  Si          0.36051      0.25366      0.37945  1.0000
  Si          0.91723      0.65831      0.04623  1.0000
  Si          0.78275      0.11737      0.71120  1.0000
  Si          0.67437      0.76368      0.88167  1.0000
  Si          0.10215      0.34497      0.54814  1.0000
  Si          0.28832      0.93385      0.21337  1.0000
  Si          0.97573      0.11993      0.96705  1.0000
  Si          0.90829      0.85627      0.30135  1.0000
  Si          0.18899      0.05751      0.63358  1.0000
  Si          0.05163      0.88665      0.46797  1.0000
  Si          0.13552      0.16252      0.80271  1.0000
  Si          0.88862      0.98585      0.13202  1.0000
  Si          0.14766      0.97135      0.36691  1.0000
  Si          0.87666      0.88862      0.03201  1.0000
  Si          0.06275      0.16630      0.70025  1.0000
  Si          0.88555      0.03944      0.86546  1.0000
  Si          0.16292      0.12646      0.53314  1.0000
  Si          0.00886      0.87331      0.19999  1.0000
  O2          0.95380      0.99955      0.99583  1.0000
  O2          0.02642      0.93229      0.33558  1.0000
  O2          0.09561      0.07907      0.66835  1.0000
  O2          0.08284      0.00489      0.50079  1.0000
  O2          0.00847      0.08672      0.83350  1.0000
  O2          0.96650      0.94895      0.16690  1.0000
  O3          0.34849      0.56732      0.31811  1.0000
  O1          0.46877      0.78020      0.65834  1.0000
  O1          0.24972      0.66852      0.99186  1.0000
  O2          0.67529      0.43862      0.83175  1.0000
  O3          0.61075      0.26054      0.16694  1.0000
  O2          0.78055      0.35831      0.50002  1.0000
  O3          0.58602      0.34623      0.99970  1.0000
  O3          0.81477      0.45796      0.67177  1.0000
  O3          0.69000      0.24984      0.33644  1.0000
  O3          0.42819      0.65699      0.49079  1.0000
  O2          0.26124      0.59651      0.16134  1.0000
  O2          0.36216      0.77190      0.82359  1.0000
  O2          0.12689      0.21773      0.97030  1.0000
  O3          0.81112      0.90585      0.30885  1.0000
  O2          0.14284      0.90902      0.64060  1.0000
  O2          0.89866      0.79708      0.46905  1.0000
  O3          0.22343      0.10139      0.80964  1.0000
  O2          0.95314      0.13880      0.13793  1.0000
  O2          0.24431      0.12099      0.36041  1.0000
  O2          0.91681      0.78098      0.02475  1.0000
  O2          0.91333      0.12346      0.69342  1.0000
  O2          0.79859      0.88675      0.86077  1.0000
  O2          0.10232      0.21957      0.52766  1.0000
  O2          0.16329      0.93704      0.19515  1.0000
  O2          0.96767      0.88107      0.25090  1.0000
  O2          0.15033      0.07926      0.58363  1.0000
  O2          0.93237      0.07685      0.91615  1.0000
  O2          0.08870      0.15047      0.75182  1.0000
  O2          0.91292      0.94928      0.08150  1.0000
  O2          0.10295      0.93906      0.41839  1.0000
  O2          0.89324      0.18442      0.98458  1.0000
  O2          0.83373      0.70378      0.31129  1.0000
  O3          0.33666      0.13972      0.64122  1.0000
  O2          0.11603      0.80394      0.48312  1.0000
  O2          0.21704      0.31323      0.81524  1.0000
  O3          0.73894      0.92040      0.13941  1.0000
  O2          0.22177      0.89515      0.35245  1.0000
  O2          0.72460      0.82340      0.02206  1.0000
  O2          0.14763      0.31316      0.68642  1.0000
  O2          0.79949      0.10309      0.85219  1.0000
  O2          0.31277      0.20049      0.51838  1.0000
  O2          0.94362      0.72651      0.18608  1.0000
  O2          0.34933      0.66644      0.24207  1.0000
  O3          0.37556      0.67566      0.57478  1.0000
  O3          0.33409      0.70281      0.90876  1.0000
  O2          0.70284      0.36880      0.75017  1.0000
  O3          0.64413      0.33118      0.08317  1.0000
  O2          0.69412      0.33855      0.41821  1.0000
  O3          0.37482      0.34422      0.97081  1.0000
  O1          0.70759      0.05193      0.30816  1.0000
  O3          0.99729      0.66405      0.64297  1.0000
  O3          0.65172      0.68893      0.46836  1.0000
  O3          0.34318      0.96316      0.79961  1.0000
  O2          0.06347      0.38646      0.13736  1.0000
  O3          0.34216      0.36398      0.35878  1.0000
  O3          0.04561      0.66551      0.02916  1.0000
  O3          0.66921      0.98561      0.69404  1.0000
  O2          0.67889      0.63970      0.86332  1.0000
  O2          0.97076      0.34087      0.53237  1.0000
  O2          0.41187      0.06548      0.20020  1.0000
  O2          0.76779      0.29351      0.01634  1.0000
  O2          0.72639      0.47699      0.34675  1.0000
  O3          0.57660      0.27626      0.67485  1.0000
  O2          0.24014      0.69500      0.51111  1.0000
  O2          0.32025      0.54774      0.84356  1.0000
  O3          0.49336      0.78074      0.17177  1.0000
  O2          0.33169      0.77628      0.31794  1.0000
  O3          0.49330      0.73156      0.99191  1.0000
  O3          0.26535      0.53604      0.65407  1.0000
  O2          0.70315      0.23800      0.82106  1.0000
  O2          0.55066      0.32287      0.48881  1.0000
  O3          0.79913      0.49482      0.16216  1.0000
  O2          0.79309      0.52997      0.02813  1.0000
  O2          0.49661      0.27116      0.36184  1.0000
  O2          0.76737      0.23221      0.69220  1.0000
  O2          0.22055      0.46980      0.52746  1.0000
  O2          0.54760      0.76028      0.86309  1.0000
  O2          0.29584      0.81603      0.19060  1.0000
  O3          0.54915      0.77026      0.30244  1.0000
  O3          0.24398      0.46775      0.97664  1.0000
  O3          0.24858      0.76583      0.64065  1.0000
  O3          0.48715      0.23844      0.80254  1.0000
  O2          0.76082      0.54690      0.46907  1.0000
  O3          0.81126      0.24857      0.14510  1.0000
  O2          0.24227      0.35151      0.90008  1.0000
  O1          0.72243      0.91518      0.22693  1.0000
  O2          0.12473      0.77919      0.56799  1.0000
  O2          0.78084      0.68385      0.39555  1.0000
  O1          0.32806      0.11402      0.72562  1.0000
  O2          0.92268      0.24222      0.06747  1.0000
  O2          0.34727      0.24352      0.43365  1.0000
  O2          0.91325      0.67515      0.10047  1.0000
  O2          0.78892      0.12161      0.76595  1.0000
  O2          0.68706      0.77576      0.93575  1.0000
  O2          0.11032      0.33662      0.60199  1.0000
  O2          0.27038      0.91781      0.26712  1.0000
  O3          0.59794      0.58461      0.99478  1.0000
  O3          0.46055      0.02923      0.32539  1.0000
  O3          0.01101      0.42079      0.66626  1.0000
  O3          0.41004      0.43590      0.49153  1.0000
  O2          0.57325      0.98822      0.81304  1.0000
  O2          0.05144      0.60257      0.15041  1.0000
  O3          0.58801      0.58561      0.33489  1.0000
  O3          0.01629      0.42712      0.00584  1.0000
  O1          0.44829      0.99868      0.66139  1.0000
  O2          0.45287      0.42949      0.84829  1.0000
  O2          0.98815      0.57083      0.51611  1.0000
  O3          0.61600      0.04952      0.17262  1.0000
  O3          0.62310      0.18459      0.24781  1.0000
  O3          0.84884      0.42584      0.58472  1.0000
  O3          0.60106      0.44267      0.91544  1.0000
  O3          0.43051      0.85008      0.74240  1.0000
  O3          0.17707      0.57187      0.07956  1.0000
  O1          0.42172      0.59599      0.40671  1.0000
  F           0.52621      0.93092      0.25174  1.0000
  F           0.09217      0.55046      0.59581  1.0000
  F           0.44257      0.57180      0.92723  1.0000
  F           0.52959      0.10373      0.73726  1.0000
  F           0.88439      0.43386      0.09192  1.0000
  F           0.54511      0.48353      0.41986  1.0000
