data_cif

_audit_creation_method             'generated by GULP'

_symmetry_space_group_name_H-M     'P 1'
_symmetry_Int_Tables_number        1
_symmetry_cell_setting             triclinic

_cell_length_a                       12.0466
_cell_length_b                       12.0560
_cell_length_c                       29.8694
_cell_angle_alpha                   89.2709
_cell_angle_beta                    90.3673
_cell_angle_gamma                  119.9800

loop_
_atom_site_label
_atom_site_fract_x
_atom_site_fract_y
_atom_site_fract_z
_atom_site_occupancy
  Si          0.69960      0.37570      0.03389  1.0000
  Si          0.60267      0.30752      0.36054  1.0000
  Ge          0.66690      0.28998      0.69491  1.0000
  Si          0.27864      0.59629      0.52263  1.0000
  Ge          0.37165      0.65523      0.87069  1.0000
  Si          0.31044      0.69273      0.19836  1.0000
  Si          0.36599      0.69132      0.29760  1.0000
  Si          0.31318      0.61660      0.96970  1.0000
  Si          0.28388      0.64452      0.62228  1.0000
  Ge          0.59895      0.28454      0.79619  1.0000
  Si          0.65622      0.35969      0.45991  1.0000
  Si          0.69107      0.31296      0.13309  1.0000
  Si          0.52918      0.41557      0.96780  1.0000
  Si          0.56780      0.09930      0.29696  1.0000
  Si          0.87472      0.44871      0.62372  1.0000
  Si          0.45341      0.56165      0.46008  1.0000
  Ge          0.38086      0.84792      0.79808  1.0000
  Si          0.09852      0.51650      0.13650  1.0000
  Si          0.40153      0.51268      0.35983  1.0000
  Si          0.10387      0.57357      0.03614  1.0000
  Ge          0.43042      0.85017      0.69206  1.0000
  Si          0.58861      0.46337      0.86542  1.0000
  Si          0.86954      0.39940      0.52318  1.0000
  Si          0.51542      0.09999      0.19633  1.0000
  Ge          0.29754      0.38259      0.84733  1.0000
  Si          0.58630      0.89251      0.18353  1.0000
  Si          0.08162      0.67828      0.50932  1.0000
  Si          0.68041      0.58486      0.34606  1.0000
  Ge          0.38325      0.08321      0.67909  1.0000
  Si          0.89771      0.29659      0.02063  1.0000
  Si          0.37902      0.28151      0.47449  1.0000
  Si          0.89120      0.58912      0.14876  1.0000
  Ge          0.67039      0.07098      0.81452  1.0000
  Si          0.59884      0.70117      0.98010  1.0000
  Si          0.07732      0.36863      0.63555  1.0000
  Si          0.28865      0.89081      0.31092  1.0000
  Si          0.24642      0.33222      0.95144  1.0000
  Si          0.64566      0.89929      0.28288  1.0000
  Si          0.08235      0.72552      0.60913  1.0000
  Si          0.73103      0.64031      0.44543  1.0000
  Ge          0.31344      0.06250      0.77841  1.0000
  Si          0.89872      0.23980      0.12015  1.0000
  Si          0.32289      0.23473      0.37479  1.0000
  Si          0.90544      0.65380      0.04931  1.0000
  Ge          0.72151      0.05950      0.71138  1.0000
  Ge          0.65770      0.74632      0.87710  1.0000
  Si          0.06795      0.31770      0.53592  1.0000
  Si          0.23778      0.89941      0.21141  1.0000
  Si          0.96904      0.11813      0.97249  1.0000
  Si          0.86191      0.83464      0.29677  1.0000
  Ge          0.13776      0.00749      0.62264  1.0000
  Si          0.01082      0.85737      0.45914  1.0000
  Ge          0.10352      0.13690      0.79470  1.0000
  Si          0.83385      0.95859      0.13438  1.0000
  Si          0.10650      0.95557      0.35995  1.0000
  Si          0.84321      0.87175      0.03490  1.0000
  Ge          0.00177      0.11810      0.68986  1.0000
  Ge          0.87349      0.03250      0.87017  1.0000
  Si          0.12663      0.10138      0.52179  1.0000
  Si          0.95726      0.83573      0.19766  1.0000
  O2          0.93165      0.00091      0.00713  1.0000
  O2          0.98506      0.91422      0.32788  1.0000
  O1          0.04702      0.02541      0.66311  1.0000
  O2          0.05213      0.97983      0.48969  1.0000
  O1          0.00519      0.12078      0.83904  1.0000
  O2          0.91422      0.91588      0.16596  1.0000
  O2          0.32688      0.56610      0.32879  1.0000
  O3          0.39816      0.72223      0.65659  1.0000
  O2          0.23289      0.64633      0.00624  1.0000
  O3          0.65786      0.40695      0.83618  1.0000
  O2          0.56636      0.22620      0.16417  1.0000
  O2          0.74296      0.32350      0.49200  1.0000
  O2          0.57854      0.34223      0.00098  1.0000
  O3          0.75955      0.41332      0.65712  1.0000
  O2          0.64165      0.22410      0.32855  1.0000
  O2          0.40240      0.63638      0.49100  1.0000
  O2          0.22402      0.56705      0.16806  1.0000
  O1          0.31016      0.73066      0.83635  1.0000
  O2          0.12334      0.21142      0.97503  1.0000
  O2          0.77200      0.89833      0.30190  1.0000
  O3          0.07888      0.84447      0.62920  1.0000
  O2          0.85752      0.76523      0.46473  1.0000
  O1          0.17045      0.04424      0.80073  1.0000
  O2          0.89727      0.11220      0.13911  1.0000
  O2          0.19667      0.10931      0.35539  1.0000
  O2          0.90642      0.78113      0.03015  1.0000
  O1          0.84113      0.05185      0.68316  1.0000
  O1          0.80160      0.87246      0.85875  1.0000
  O2          0.06682      0.19450      0.51383  1.0000
  O2          0.11075      0.89879      0.19214  1.0000
  O2          0.91546      0.84715      0.24711  1.0000
  O3          0.09977      0.04708      0.57135  1.0000
  O3          0.92249      0.05570      0.92538  1.0000
  O1          0.01853      0.11578      0.74716  1.0000
  O2          0.84333      0.91447      0.08516  1.0000
  O2          0.05057      0.90968      0.40911  1.0000
  O2          0.90032      0.20127      0.98329  1.0000
  O2          0.77921      0.68385      0.30874  1.0000
  O1          0.29401      0.09275      0.63326  1.0000
  O2          0.08148      0.77744      0.47189  1.0000
  O1          0.22522      0.29199      0.80158  1.0000
  O2          0.68349      0.89131      0.14626  1.0000
  O2          0.19013      0.88899      0.34814  1.0000
  O2          0.69580      0.79292      0.01881  1.0000
  O3          0.08476      0.27726      0.67328  1.0000
  O1          0.76133      0.07676      0.86017  1.0000
  O2          0.27980      0.18250      0.51186  1.0000
  O2          0.88900      0.68512      0.18595  1.0000
  O2          0.31048      0.63600      0.24803  1.0000
  O2          0.33889      0.64804      0.57218  1.0000
  O3          0.31064      0.67737      0.92270  1.0000
  O1          0.63764      0.35105      0.74282  1.0000
  O2          0.63784      0.31464      0.08271  1.0000
  O2          0.65774      0.30477      0.41035  1.0000
  O2          0.37427      0.33518      0.97093  1.0000
  O2          0.65514      0.03094      0.30029  1.0000
  O2          0.95194      0.60304      0.62702  1.0000
  O2          0.60885      0.64927      0.46342  1.0000
  O1          0.28114      0.90955      0.78728  1.0000
  O2          0.02999      0.36087      0.13873  1.0000
  O2          0.31403      0.35746      0.35631  1.0000
  O2          0.03649      0.66173      0.03126  1.0000
  O1          0.59154      0.94929      0.68262  1.0000
  O3          0.67578      0.61652      0.86444  1.0000
  O2          0.93670      0.31155      0.51918  1.0000
  O2          0.35976      0.03136      0.19290  1.0000
  O2          0.76685      0.30139      0.01133  1.0000
  O2          0.67855      0.45089      0.33850  1.0000
  O1          0.52975      0.20711      0.66367  1.0000
  O2          0.21229      0.67371      0.50096  1.0000
  O1          0.27905      0.51147      0.84195  1.0000
  O2          0.45238      0.76016      0.17573  1.0000
  O2          0.29064      0.75857      0.31908  1.0000
  O2          0.45951      0.68549      0.98958  1.0000
  O2          0.21031      0.50077      0.64341  1.0000
  O1          0.69748      0.22386      0.80828  1.0000
  O2          0.51329      0.28263      0.48193  1.0000
  O2          0.75723      0.45532      0.15470  1.0000
  O2          0.77913      0.53112      0.02946  1.0000
  O2          0.44749      0.23403      0.35550  1.0000
  O1          0.75190      0.21413      0.70609  1.0000
  O2          0.19506      0.44201      0.51699  1.0000
  O1          0.53616      0.75835      0.85268  1.0000
  O2          0.23636      0.77389      0.19231  1.0000
  O2          0.52103      0.77425      0.30269  1.0000
  O2          0.24842      0.46142      0.96593  1.0000
  O2          0.20872      0.72485      0.62732  1.0000
  O1          0.43817      0.18714      0.80698  1.0000
  O2          0.73009      0.51449      0.46485  1.0000
  O2          0.77362      0.24049      0.13873  1.0000
  O3          0.23292      0.30529      0.89906  1.0000
  O2          0.66094      0.89699      0.22928  1.0000
  O2          0.08442      0.74870      0.55526  1.0000
  O2          0.74936      0.65779      0.39181  1.0000
  O1          0.30180      0.10290      0.72335  1.0000
  O2          0.89794      0.22413      0.06653  1.0000
  O2          0.30599      0.21479      0.42839  1.0000
  O2          0.90210      0.66691      0.10288  1.0000
  O1          0.71966      0.02356      0.76772  1.0000
  O3          0.66388      0.77553      0.93497  1.0000
  O2          0.07073      0.29429      0.58948  1.0000
  O2          0.21956      0.89632      0.26495  1.0000
  O2          0.58631      0.56145      0.98343  1.0000
  O2          0.42730      0.01478      0.31951  1.0000
  O2          0.94985      0.37823      0.64441  1.0000
  O2          0.39640      0.42105      0.48328  1.0000
  O1          0.51278      0.97156      0.82449  1.0000
  O2          0.01231      0.57009      0.15882  1.0000
  O2          0.54171      0.57048      0.33676  1.0000
  O2          0.02385      0.43478      0.01255  1.0000
  O1          0.35083      0.92719      0.67512  1.0000
  O3          0.45445      0.41619      0.84068  1.0000
  O2          0.95443      0.54129      0.50118  1.0000
  O2          0.57291      0.01739      0.17379  1.0000
  O2          0.56754      0.15173      0.24646  1.0000
  O2          0.81877      0.39822      0.57356  1.0000
  O2          0.57247      0.41127      0.91717  1.0000
  O1          0.40714      0.79740      0.74692  1.0000
  O2          0.15253      0.57209      0.08669  1.0000
  O2          0.40135      0.56293      0.40992  1.0000
  F           0.43781      0.89202      0.24636  1.0000
  F           0.08152      0.52252      0.57296  1.0000
  F           0.44386      0.57031      0.90476  1.0000
  F           0.50285      0.08173      0.73989  1.0000
  F           0.89342      0.44287      0.08312  1.0000
  F           0.53032      0.43345      0.40984  1.0000
