data_cif

_audit_creation_method             'generated by GULP'

_symmetry_space_group_name_H-M     'P 1'
_symmetry_Int_Tables_number        1
_symmetry_cell_setting             triclinic

_cell_length_a                       12.0440
_cell_length_b                       12.0038
_cell_length_c                       29.8166
_cell_angle_alpha                   90.1402
_cell_angle_beta                    88.8501
_cell_angle_gamma                  119.8057

loop_
_atom_site_label
_atom_site_fract_x
_atom_site_fract_y
_atom_site_fract_z
_atom_site_occupancy
  Si          0.69960      0.37570      0.03389  1.0000
  Ge          0.66616      0.32165      0.37579  1.0000
  Si          0.68912      0.29754      0.70736  1.0000
  Si          0.31434      0.63193      0.54072  1.0000
  Si          0.38713      0.67187      0.86829  1.0000
  Si          0.31358      0.68819      0.19529  1.0000
  Ge          0.35519      0.65898      0.29759  1.0000
  Si          0.32455      0.61662      0.96771  1.0000
  Si          0.31612      0.68315      0.64068  1.0000
  Si          0.62652      0.29085      0.80670  1.0000
  Ge          0.71586      0.39224      0.47832  1.0000
  Si          0.70000      0.32338      0.13356  1.0000
  Si          0.52742      0.41274      0.97097  1.0000
  Ge          0.58236      0.10322      0.30801  1.0000
  Si          0.90860      0.47281      0.64607  1.0000
  Ge          0.47778      0.58693      0.46966  1.0000
  Si          0.42770      0.88409      0.80438  1.0000
  Si          0.10418      0.52415      0.13050  1.0000
  Ge          0.43442      0.52139      0.36613  1.0000
  Si          0.10780      0.57724      0.03005  1.0000
  Si          0.48820      0.89188      0.70380  1.0000
  Si          0.58709      0.46434      0.87036  1.0000
  Si          0.91345      0.41922      0.54616  1.0000
  Ge          0.53411      0.11081      0.20304  1.0000
  Si          0.30944      0.39347      0.85551  1.0000
  Si          0.59997      0.88612      0.18595  1.0000
  Si          0.10731      0.70273      0.52852  1.0000
  Ge          0.72764      0.59686      0.35484  1.0000
  Si          0.41463      0.09942      0.69099  1.0000
  Si          0.89939      0.29748      0.01825  1.0000
  Ge          0.42106      0.29927      0.48866  1.0000
  Si          0.90044      0.60086      0.14683  1.0000
  Si          0.70468      0.09078      0.81936  1.0000
  Si          0.59899      0.69272      0.98360  1.0000
  Si          0.11987      0.40559      0.65757  1.0000
  Ge          0.30270      0.87877      0.31046  1.0000
  Si          0.25145      0.33567      0.95523  1.0000
  Ge          0.64900      0.88040      0.28814  1.0000
  Si          0.10517      0.75143      0.62884  1.0000
  Ge          0.77133      0.67213      0.45560  1.0000
  Si          0.34926      0.08456      0.79078  1.0000
  Si          0.90390      0.24593      0.11795  1.0000
  Ge          0.37081      0.23646      0.38572  1.0000
  Si          0.90760      0.65573      0.04678  1.0000
  Si          0.76403      0.09076      0.71974  1.0000
  Si          0.66523      0.74324      0.88401  1.0000
  Si          0.11903      0.34861      0.55815  1.0000
  Si          0.24404      0.90481      0.21362  1.0000
  Si          0.97078      0.11856      0.96860  1.0000
  Ge          0.89625      0.84514      0.30074  1.0000
  Si          0.16737      0.03014      0.64279  1.0000
  Si          0.04734      0.88871      0.47583  1.0000
  Si          0.13112      0.14640      0.80585  1.0000
  Si          0.84799      0.96679      0.13195  1.0000
  Ge          0.13288      0.95553      0.36917  1.0000
  Si          0.84487      0.87271      0.03203  1.0000
  Si          0.04537      0.15488      0.70647  1.0000
  Si          0.88323      0.02311      0.86923  1.0000
  Si          0.17335      0.12364      0.54308  1.0000
  Si          0.97277      0.85068      0.19559  1.0000
  O2          0.92607      0.99461      0.99991  1.0000
  O1          0.01020      0.94206      0.33692  1.0000
  O2          0.08896      0.07503      0.67483  1.0000
  O2          0.09523      0.01171      0.50803  1.0000
  O2          0.00741      0.06539      0.83769  1.0000
  O2          0.93433      0.93075      0.16204  1.0000
  O1          0.33095      0.52849      0.32798  1.0000
  O2          0.44008      0.76854      0.67129  1.0000
  O2          0.23462      0.65397      0.99829  1.0000
  O2          0.66345      0.41238      0.83930  1.0000
  O3          0.58067      0.23984      0.16639  1.0000
  O3          0.79277      0.34226      0.51543  1.0000
  O2          0.57629      0.33733      0.00311  1.0000
  O2          0.78091      0.42455      0.67745  1.0000
  O1          0.69137      0.21954      0.34235  1.0000
  O3          0.42910      0.67130      0.50541  1.0000
  O2          0.23177      0.57512      0.16009  1.0000
  O2          0.35087      0.75631      0.83558  1.0000
  O2          0.12335      0.20989      0.97461  1.0000
  O1          0.77819      0.88309      0.31059  1.0000
  O2          0.10568      0.87694      0.64973  1.0000
  O3          0.89632      0.81175      0.47922  1.0000
  O2          0.22095      0.08224      0.81025  1.0000
  O2          0.90449      0.11978      0.13724  1.0000
  O1          0.24492      0.11419      0.36037  1.0000
  O2          0.90730      0.78116      0.02673  1.0000
  O2          0.89289      0.09461      0.70028  1.0000
  O2          0.79356      0.86911      0.86486  1.0000
  O2          0.12083      0.22413      0.53825  1.0000
  O2          0.12445      0.90313      0.18851  1.0000
  O3          0.94254      0.87920      0.24451  1.0000
  O2          0.14936      0.06342      0.59264  1.0000
  O2          0.93469      0.06687      0.91872  1.0000
  O2          0.07925      0.13717      0.75645  1.0000
  O2          0.85737      0.92736      0.08157  1.0000
  O3          0.09643      0.93908      0.42621  1.0000
  O2          0.89977      0.19926      0.98071  1.0000
  O1          0.83246      0.68663      0.31091  1.0000
  O2          0.31873      0.10072      0.65348  1.0000
  O2          0.10545      0.79709      0.49041  1.0000
  O2          0.21357      0.29661      0.81818  1.0000
  O2          0.69871      0.89143      0.14683  1.0000
  O1          0.18687      0.85861      0.35230  1.0000
  O2          0.69442      0.79128      0.02093  1.0000
  O2          0.11864      0.30682      0.69524  1.0000
  O2          0.80050      0.09038      0.85688  1.0000
  O3          0.32172      0.19744      0.53170  1.0000
  O2          0.89829      0.69791      0.18461  1.0000
  O3          0.32047      0.62157      0.24084  1.0000
  O2          0.37233      0.68793      0.59009  1.0000
  O2          0.32817      0.67368      0.91785  1.0000
  O2          0.68510      0.35118      0.75725  1.0000
  O2          0.64327      0.32252      0.08423  1.0000
  O1          0.69863      0.30450      0.43028  1.0000
  O2          0.37188      0.32572      0.97422  1.0000
  O1          0.67121      0.02837      0.29836  1.0000
  O2          0.97504      0.62856      0.64806  1.0000
  O1          0.63897      0.66500      0.48045  1.0000
  O2          0.33937      0.95164      0.80800  1.0000
  O2          0.03426      0.36849      0.13589  1.0000
  O1          0.34425      0.36323      0.38109  1.0000
  O2          0.03931      0.66471      0.02813  1.0000
  O2          0.64379      0.95998      0.70095  1.0000
  O2          0.67516      0.61999      0.86680  1.0000
  O2          0.98751      0.33756      0.54086  1.0000
  O3          0.37014      0.02728      0.19424  1.0000
  O2          0.76660      0.29870      0.01190  1.0000
  O1          0.76177      0.47404      0.35557  1.0000
  O2          0.54907      0.23316      0.68429  1.0000
  O2          0.23959      0.70087      0.51976  1.0000
  O2          0.31263      0.52842      0.84719  1.0000
  O2          0.45681      0.77382      0.17366  1.0000
  O1          0.26667      0.72020      0.31969  1.0000
  O2          0.46455      0.69197      0.99071  1.0000
  O2          0.25184      0.54053      0.66354  1.0000
  O2          0.70108      0.22230      0.82805  1.0000
  O1          0.57149      0.34362      0.50555  1.0000
  O2          0.76934      0.46607      0.15584  1.0000
  O2          0.78318      0.53069      0.02818  1.0000
  O1          0.50946      0.26455      0.35907  1.0000
  O2          0.76383      0.21669      0.70123  1.0000
  O2          0.24303      0.47513      0.53786  1.0000
  O2          0.54240      0.74412      0.86378  1.0000
  O2          0.24453      0.77292      0.20099  1.0000
  O1          0.51538      0.75510      0.31192  1.0000
  O2          0.24956      0.46116      0.97379  1.0000
  O2          0.23200      0.75410      0.64677  1.0000
  O2          0.47123      0.20851      0.81137  1.0000
  O1          0.80453      0.55488      0.47203  1.0000
  O2          0.77694      0.24330      0.13824  1.0000
  O2          0.23742      0.31948      0.90157  1.0000
  O3          0.64508      0.84970      0.23052  1.0000
  O2          0.10484      0.77105      0.57527  1.0000
  O1          0.79133      0.70399      0.39882  1.0000
  O2          0.33765      0.09163      0.73711  1.0000
  O2          0.90408      0.22849      0.06422  1.0000
  O1          0.37999      0.20555      0.44178  1.0000
  O2          0.90407      0.67272      0.10047  1.0000
  O2          0.77772      0.08898      0.77347  1.0000
  O2          0.67662      0.76183      0.93770  1.0000
  O2          0.11899      0.33169      0.61198  1.0000
  O3          0.22133      0.90893      0.26634  1.0000
  O2          0.58328      0.55340      0.99352  1.0000
  O1          0.43547      0.01218      0.33409  1.0000
  O2          0.99498      0.41902      0.66832  1.0000
  O1          0.39741      0.42777      0.48444  1.0000
  O2          0.56594      0.96553      0.82769  1.0000
  O2          0.02573      0.58693      0.15425  1.0000
  O1          0.57743      0.56216      0.33872  1.0000
  O2          0.02249      0.43666      0.00809  1.0000
  O2          0.43261      0.97697      0.68148  1.0000
  O2          0.44872      0.40796      0.84725  1.0000
  O2          0.98504      0.56135      0.52250  1.0000
  O3          0.60589      0.02158      0.18808  1.0000
  O1          0.56864      0.16556      0.25641  1.0000
  O2          0.85809      0.41663      0.59660  1.0000
  O2          0.58304      0.41204      0.92094  1.0000
  O2          0.43217      0.83556      0.75381  1.0000
  O2          0.15769      0.57443      0.07999  1.0000
  O1          0.45402      0.61049      0.41439  1.0000
  F           0.42685      0.89003      0.26415  1.0000
  F           0.11594      0.55116      0.59316  1.0000
  F           0.45440      0.54342      0.92023  1.0000
  F           0.55995      0.09537      0.75548  1.0000
  F           0.89841      0.44578      0.08384  1.0000
  F           0.59830      0.46962      0.41996  1.0000
