data_cif

_audit_creation_method             'generated by GULP'

_symmetry_space_group_name_H-M     'P 1'
_symmetry_Int_Tables_number        1
_symmetry_cell_setting             triclinic

_cell_length_a                       12.0090
_cell_length_b                       12.0516
_cell_length_c                       30.0011
_cell_angle_alpha                   89.5803
_cell_angle_beta                    90.8253
_cell_angle_gamma                  119.7811

loop_
_atom_site_label
_atom_site_fract_x
_atom_site_fract_y
_atom_site_fract_z
_atom_site_occupancy
  Ge          0.69960      0.37570      0.03389  1.0000
  Si          0.60518      0.31731      0.37615  1.0000
  Si          0.67241      0.28687      0.69963  1.0000
  Si          0.28269      0.61103      0.53643  1.0000
  Si          0.38329      0.66600      0.85893  1.0000
  Ge          0.31200      0.68827      0.20640  1.0000
  Si          0.36209      0.69261      0.30931  1.0000
  Si          0.33530      0.62220      0.95828  1.0000
  Si          0.28991      0.66753      0.63519  1.0000
  Si          0.61894      0.28185      0.79851  1.0000
  Si          0.66282      0.37342      0.47487  1.0000
  Ge          0.71276      0.31835      0.13527  1.0000
  Si          0.53229      0.41048      0.96148  1.0000
  Si          0.56939      0.10988      0.31189  1.0000
  Si          0.88198      0.46346      0.63739  1.0000
  Si          0.45616      0.57455      0.47400  1.0000
  Si          0.41780      0.87709      0.79664  1.0000
  Ge          0.13527      0.50790      0.13229  1.0000
  Si          0.40517      0.52185      0.37418  1.0000
  Ge          0.13259      0.56778      0.02848  1.0000
  Si          0.46829      0.88017      0.69686  1.0000
  Si          0.58114      0.45450      0.86148  1.0000
  Si          0.87721      0.41146      0.53745  1.0000
  Ge          0.53014      0.12260      0.20735  1.0000
  Si          0.30176      0.38757      0.84716  1.0000
  Si          0.59807      0.90448      0.19277  1.0000
  Si          0.08258      0.68931      0.52275  1.0000
  Si          0.68407      0.59400      0.36075  1.0000
  Si          0.39567      0.08772      0.68400  1.0000
  Ge          0.90083      0.28695      0.01719  1.0000
  Si          0.38499      0.29553      0.48795  1.0000
  Ge          0.93399      0.59677      0.15720  1.0000
  Si          0.69755      0.08203      0.81205  1.0000
  Si          0.61248      0.69223      0.97204  1.0000
  Si          0.09129      0.39155      0.65022  1.0000
  Si          0.28286      0.89501      0.32528  1.0000
  Si          0.25412      0.33983      0.94661  1.0000
  Si          0.64853      0.90881      0.29432  1.0000
  Si          0.08093      0.74036      0.62187  1.0000
  Si          0.73453      0.65279      0.45987  1.0000
  Si          0.33887      0.07682      0.78290  1.0000
  Ge          0.91697      0.22895      0.11784  1.0000
  Si          0.32469      0.24385      0.38880  1.0000
  Ge          0.93257      0.65625      0.05415  1.0000
  Si          0.74575      0.07931      0.71281  1.0000
  Si          0.66295      0.73407      0.87281  1.0000
  Si          0.07756      0.33243      0.55120  1.0000
  Ge          0.26147      0.90876      0.22525  1.0000
  Ge          0.97094      0.11271      0.96133  1.0000
  Si          0.86195      0.84017      0.31005  1.0000
  Si          0.14497      0.02011      0.63539  1.0000
  Si          0.01350      0.87052      0.47349  1.0000
  Si          0.12182      0.13945      0.79757  1.0000
  Ge          0.83799      0.94222      0.13849  1.0000
  Si          0.10718      0.96431      0.37477  1.0000
  Ge          0.85621      0.87133      0.03135  1.0000
  Si          0.02557      0.14301      0.69865  1.0000
  Si          0.87830      0.00972      0.86033  1.0000
  Si          0.13826      0.11425      0.53669  1.0000
  Ge          0.97158      0.83308      0.21197  1.0000
  O1          0.95321      0.00479      0.00177  1.0000
  O2          0.98791      0.92106      0.34081  1.0000
  O2          0.06738      0.06411      0.66684  1.0000
  O2          0.05805      0.99360      0.50451  1.0000
  O2          0.00161      0.05887      0.82910  1.0000
  O1          0.89611      0.86200      0.16788  1.0000
  O2          0.33140      0.57525      0.34271  1.0000
  O2          0.41664      0.75432      0.66555  1.0000
  O3          0.25741      0.66015      0.99171  1.0000
  O2          0.65630      0.40290      0.83087  1.0000
  O1          0.59356      0.25460      0.17507  1.0000
  O2          0.74884      0.33535      0.50662  1.0000
  O3          0.57328      0.33696      0.99641  1.0000
  O2          0.75739      0.41217      0.66897  1.0000
  O2          0.64262      0.22937      0.34605  1.0000
  O2          0.40530      0.64968      0.50471  1.0000
  O1          0.26092      0.56309      0.17029  1.0000
  O2          0.34281      0.74970      0.82699  1.0000
  O3          0.13459      0.21831      0.96693  1.0000
  O2          0.76850      0.90121      0.31624  1.0000
  O2          0.08276      0.86702      0.64112  1.0000
  O2          0.86016      0.77949      0.47917  1.0000
  O2          0.21339      0.07687      0.80234  1.0000
  O1          0.92583      0.10346      0.14332  1.0000
  O2          0.19731      0.11807      0.36968  1.0000
  O1          0.93864      0.79082      0.03197  1.0000
  O2          0.87192      0.08080      0.69318  1.0000
  O2          0.78712      0.85738      0.85155  1.0000
  O2          0.07540      0.20543      0.53196  1.0000
  O1          0.12890      0.92556      0.20736  1.0000
  O3          0.90184      0.85160      0.25974  1.0000
  O2          0.12778      0.05855      0.58575  1.0000
  O3          0.92953      0.03718      0.91016  1.0000
  O2          0.06727      0.12865      0.74804  1.0000
  O1          0.82505      0.89791      0.08404  1.0000
  O2          0.04973      0.92298      0.42363  1.0000
  O1          0.88722      0.18614      0.97265  1.0000
  O2          0.78238      0.69016      0.32350  1.0000
  O2          0.29670      0.08902      0.64660  1.0000
  O2          0.08241      0.78805      0.48541  1.0000
  O2          0.20282      0.28933      0.80998  1.0000
  O3          0.68341      0.89452      0.15496  1.0000
  O2          0.19338      0.89839      0.36526  1.0000
  O3          0.70288      0.78896      0.00916  1.0000
  O2          0.09404      0.29385      0.68727  1.0000
  O2          0.79594      0.08064      0.84965  1.0000
  O2          0.28875      0.19704      0.52496  1.0000
  O1          0.93151      0.67589      0.20396  1.0000
  O3          0.29803      0.63494      0.26204  1.0000
  O2          0.34293      0.66720      0.58554  1.0000
  O2          0.33198      0.67412      0.90818  1.0000
  O2          0.67381      0.34095      0.74938  1.0000
  O1          0.64262      0.28948      0.08265  1.0000
  O2          0.66389      0.31865      0.42546  1.0000
  O2          0.37757      0.33212      0.96503  1.0000
  O2          0.64800      0.03185      0.31527  1.0000
  O2          0.95040      0.61874      0.64026  1.0000
  O2          0.61181      0.66230      0.47677  1.0000
  O2          0.32973      0.94464      0.80025  1.0000
  O1          0.07431      0.34760      0.12556  1.0000
  O2          0.31733      0.36686      0.36967  1.0000
  O1          0.03968      0.63842      0.02232  1.0000
  O2          0.62394      0.94878      0.69389  1.0000
  O2          0.66993      0.60918      0.85701  1.0000
  O2          0.94494      0.32370      0.53359  1.0000
  O1          0.36820      0.05760      0.20276  1.0000
  O1          0.78228      0.31997      0.00366  1.0000
  O2          0.67937      0.45837      0.35291  1.0000
  O2          0.52936      0.22052      0.67711  1.0000
  O2          0.21441      0.68661      0.51448  1.0000
  O2          0.30534      0.52231      0.83824  1.0000
  O3          0.47156      0.76902      0.19111  1.0000
  O2          0.29708      0.76855      0.33207  1.0000
  O2          0.47888      0.69158      0.97946  1.0000
  O2          0.22426      0.52537      0.65731  1.0000
  O2          0.69570      0.21418      0.82009  1.0000
  O2          0.51953      0.29698      0.49563  1.0000
  O1          0.77896      0.47610      0.14880  1.0000
  O1          0.77705      0.53568      0.04549  1.0000
  O2          0.44950      0.24188      0.37036  1.0000
  O2          0.74630      0.20560      0.69418  1.0000
  O2          0.20182      0.45613      0.53125  1.0000
  O2          0.53779      0.73556      0.85321  1.0000
  O1          0.22670      0.76638      0.19665  1.0000
  O2          0.51647      0.78139      0.30584  1.0000
  O2          0.25494      0.46708      0.96384  1.0000
  O2          0.20741      0.74021      0.64061  1.0000
  O2          0.46385      0.20038      0.80298  1.0000
  O2          0.73401      0.52801      0.47986  1.0000
  O1          0.80175      0.24423      0.14607  1.0000
  O2          0.23171      0.31901      0.89302  1.0000
  O2          0.67096      0.92730      0.24139  1.0000
  O2          0.07996      0.75839      0.56845  1.0000
  O2          0.75396      0.66698      0.40652  1.0000
  O2          0.32182      0.08117      0.72951  1.0000
  O1          0.87827      0.18800      0.06257  1.0000
  O2          0.30960      0.22754      0.44215  1.0000
  O1          0.97896      0.68934      0.10921  1.0000
  O2          0.76549      0.07894      0.76620  1.0000
  O2          0.68518      0.75979      0.92594  1.0000
  O2          0.08380      0.31732      0.60452  1.0000
  O3          0.20503      0.88937      0.28159  1.0000
  O2          0.60368      0.55558      0.98141  1.0000
  O2          0.42348      0.02205      0.32856  1.0000
  O2          0.96790      0.40727      0.65951  1.0000
  O2          0.40128      0.43468      0.49671  1.0000
  O2          0.55818      0.95888      0.82019  1.0000
  O1          0.03137      0.53274      0.16473  1.0000
  O2          0.54568      0.58244      0.35149  1.0000
  O1          0.05506      0.41152      0.01217  1.0000
  O2          0.41065      0.96424      0.67430  1.0000
  O2          0.43932      0.39786      0.83918  1.0000
  O2          0.95753      0.55109      0.51407  1.0000
  O3          0.57929      0.02399      0.18200  1.0000
  O3          0.58140      0.16635      0.26293  1.0000
  O2          0.82740      0.41165      0.58745  1.0000
  O2          0.58230      0.40357      0.91179  1.0000
  O2          0.41721      0.82680      0.74655  1.0000
  O1          0.19158      0.58884      0.08276  1.0000
  O2          0.40263      0.57286      0.42381  1.0000
  F           0.40802      0.90310      0.24956  1.0000
  F           0.08667      0.53987      0.58573  1.0000
  F           0.45790      0.54091      0.91004  1.0000
  F           0.54597      0.08496      0.74771  1.0000
  F           0.91606      0.42217      0.08096  1.0000
  F           0.53323      0.44474      0.42295  1.0000
