data_cif

_audit_creation_method             'generated by GULP'

_symmetry_space_group_name_H-M     'P 1'
_symmetry_Int_Tables_number        1
_symmetry_cell_setting             triclinic

_cell_length_a                       12.0429
_cell_length_b                       12.0959
_cell_length_c                       29.8319
_cell_angle_alpha                   89.0171
_cell_angle_beta                    90.1644
_cell_angle_gamma                  120.2233

loop_
_atom_site_label
_atom_site_fract_x
_atom_site_fract_y
_atom_site_fract_z
_atom_site_occupancy
  Si          0.69960      0.37570      0.03389  1.0000
  Si          0.60863      0.30713      0.36106  1.0000
  Si          0.66401      0.30456      0.70773  1.0000
  Ge          0.31718      0.64726      0.53840  1.0000
  Si          0.37356      0.67516      0.87259  1.0000
  Si          0.31209      0.69287      0.19945  1.0000
  Si          0.36886      0.69374      0.29903  1.0000
  Si          0.31845      0.61433      0.97200  1.0000
  Ge          0.30578      0.70177      0.63963  1.0000
  Si          0.61529      0.30274      0.80764  1.0000
  Si          0.67601      0.34475      0.46306  1.0000
  Si          0.69475      0.31450      0.13334  1.0000
  Si          0.52590      0.41538      0.97066  1.0000
  Si          0.56936      0.09915      0.29677  1.0000
  Ge          0.86856      0.45613      0.63501  1.0000
  Ge          0.45830      0.57281      0.46974  1.0000
  Si          0.41518      0.89359      0.81123  1.0000
  Si          0.10212      0.51969      0.13612  1.0000
  Si          0.40258      0.51962      0.36605  1.0000
  Si          0.10687      0.57698      0.03543  1.0000
  Si          0.46668      0.89875      0.71077  1.0000
  Si          0.57814      0.47465      0.87013  1.0000
  Ge          0.88859      0.41763      0.53033  1.0000
  Si          0.51757      0.10023      0.19630  1.0000
  Si          0.29742      0.40063      0.85672  1.0000
  Si          0.58999      0.89410      0.18343  1.0000
  Ge          0.10387      0.71258      0.51808  1.0000
  Si          0.69003      0.58968      0.34953  1.0000
  Si          0.38517      0.09876      0.69597  1.0000
  Si          0.89959      0.29868      0.02088  1.0000
  Ge          0.40911      0.29849      0.47239  1.0000
  Si          0.89388      0.58967      0.14831  1.0000
  Si          0.69447      0.10533      0.82336  1.0000
  Si          0.59628      0.69218      0.98512  1.0000
  Ge          0.10295      0.41046      0.65290  1.0000
  Si          0.29021      0.89186      0.31230  1.0000
  Si          0.24744      0.33719      0.95649  1.0000
  Si          0.64827      0.90177      0.28294  1.0000
  Ge          0.07633      0.75033      0.62069  1.0000
  Ge          0.74646      0.63483      0.45189  1.0000
  Si          0.33535      0.09175      0.79627  1.0000
  Si          0.90254      0.24291      0.12060  1.0000
  Si          0.32177      0.23510      0.37659  1.0000
  Si          0.90689      0.65490      0.04888  1.0000
  Si          0.74407      0.10449      0.72368  1.0000
  Si          0.65483      0.75029      0.88561  1.0000
  Ge          0.10811      0.35396      0.55092  1.0000
  Si          0.23898      0.89910      0.21258  1.0000
  Si          0.96710      0.11967      0.97158  1.0000
  Si          0.86323      0.83715      0.29565  1.0000
  Ge          0.13879      0.03036      0.63891  1.0000
  Ge          0.03147      0.88384      0.46237  1.0000
  Si          0.11966      0.15119      0.80943  1.0000
  Si          0.83899      0.96256      0.13376  1.0000
  Si          0.10866      0.96193      0.35815  1.0000
  Si          0.84378      0.87187      0.03468  1.0000
  Ge          0.02692      0.16094      0.70850  1.0000
  Si          0.87158      0.03186      0.87227  1.0000
  Ge          0.16057      0.12191      0.52986  1.0000
  Si          0.95823      0.83542      0.19664  1.0000
  O2          0.92474      0.99601      0.00321  1.0000
  O2          0.99070      0.91811      0.32407  1.0000
  O1          0.05009      0.08244      0.66577  1.0000
  O1          0.05204      0.00532      0.49434  1.0000
  O2          0.99413      0.07566      0.84059  1.0000
  O2          0.91920      0.91753      0.16437  1.0000
  O2          0.33343      0.57104      0.33135  1.0000
  O3          0.42775      0.78209      0.67856  1.0000
  O2          0.23456      0.65209      0.00423  1.0000
  O2          0.65408      0.42659      0.83838  1.0000
  O2          0.56842      0.22645      0.16433  1.0000
  O3          0.77258      0.31759      0.49120  1.0000
  O2          0.57730      0.33905      0.00175  1.0000
  O3          0.73870      0.41584      0.67114  1.0000
  O2          0.64417      0.22517      0.32774  1.0000
  O1          0.44016      0.67908      0.50125  1.0000
  O2          0.22677      0.56957      0.16842  1.0000
  O2          0.33755      0.76541      0.84236  1.0000
  O2          0.12115      0.20953      0.97600  1.0000
  O2          0.77503      0.90195      0.30199  1.0000
  O1          0.06380      0.86930      0.64717  1.0000
  O1          0.87934      0.75889      0.47436  1.0000
  O2          0.21214      0.09168      0.81857  1.0000
  O2          0.90129      0.11533      0.13969  1.0000
  O2          0.20359      0.11525      0.35108  1.0000
  O2          0.90807      0.78269      0.03013  1.0000
  O3          0.86322      0.09981      0.70362  1.0000
  O2          0.77975      0.87912      0.86622  1.0000
  O1          0.10232      0.22431      0.52743  1.0000
  O2          0.11264      0.89884      0.19318  1.0000
  O2          0.90872      0.84346      0.24523  1.0000
  O1          0.14456      0.05669      0.58269  1.0000
  O2          0.92369      0.06739      0.92221  1.0000
  O3          0.07154      0.12567      0.75914  1.0000
  O2          0.85220      0.92444      0.08401  1.0000
  O3          0.04443      0.92557      0.40604  1.0000
  O2          0.89984      0.20197      0.98385  1.0000
  O2          0.77898      0.68758      0.30990  1.0000
  O3          0.29591      0.10705      0.65826  1.0000
  O1          0.12687      0.82231      0.47588  1.0000
  O2          0.19973      0.30372      0.81914  1.0000
  O2          0.68764      0.89334      0.14608  1.0000
  O2          0.19158      0.89165      0.34960  1.0000
  O2          0.69345      0.78845      0.02259  1.0000
  O1          0.10689      0.31971      0.69836  1.0000
  O2          0.79234      0.10378      0.86085  1.0000
  O1          0.31370      0.18456      0.51382  1.0000
  O2          0.89108      0.68554      0.18527  1.0000
  O2          0.31104      0.63714      0.24979  1.0000
  O1          0.37659      0.68284      0.59220  1.0000
  O2          0.31679      0.67188      0.92241  1.0000
  O2          0.66796      0.36167      0.75739  1.0000
  O2          0.64040      0.31694      0.08348  1.0000
  O2          0.67180      0.31102      0.40955  1.0000
  O2          0.36996      0.32742      0.97418  1.0000
  O2          0.65707      0.03184      0.30126  1.0000
  O1          0.95970      0.61578      0.64699  1.0000
  O1          0.62458      0.65730      0.46702  1.0000
  O2          0.32750      0.96078      0.81442  1.0000
  O2          0.03343      0.36416      0.13939  1.0000
  O2          0.32265      0.36484      0.36032  1.0000
  O2          0.03956      0.66478      0.03159  1.0000
  O2          0.62154      0.97487      0.70616  1.0000
  O2          0.66544      0.63029      0.86709  1.0000
  O1          0.95447      0.32500      0.54265  1.0000
  O2          0.36156      0.03134      0.19409  1.0000
  O2          0.76774      0.30133      0.01261  1.0000
  O2          0.67456      0.45099      0.33996  1.0000
  O2          0.51989      0.23037      0.68770  1.0000
  O1          0.25895      0.74337      0.52122  1.0000
  O2          0.29789      0.53448      0.84975  1.0000
  O2          0.45561      0.76086      0.17746  1.0000
  O2          0.29426      0.76094      0.32138  1.0000
  O2          0.46171      0.68887      0.99357  1.0000
  O1          0.21340      0.56039      0.66885  1.0000
  O2          0.69242      0.23729      0.83022  1.0000
  O3          0.53610      0.26692      0.48399  1.0000
  O2          0.76057      0.45523      0.15588  1.0000
  O2          0.78266      0.53095      0.02900  1.0000
  O2          0.45458      0.24114      0.36170  1.0000
  O2          0.74677      0.23183      0.70447  1.0000
  O1          0.22274      0.48856      0.52356  1.0000
  O2          0.52895      0.74969      0.86675  1.0000
  O2          0.23979      0.77513      0.19390  1.0000
  O2          0.52467      0.77462      0.30304  1.0000
  O2          0.24542      0.45919      0.97671  1.0000
  O1          0.23277      0.78965      0.63066  1.0000
  O2          0.46041      0.21899      0.81394  1.0000
  O3          0.74035      0.49798      0.47262  1.0000
  O2          0.77568      0.24054      0.13937  1.0000
  O2          0.22856      0.32423      0.90281  1.0000
  O2          0.66511      0.90148      0.22934  1.0000
  O1          0.05121      0.75816      0.56408  1.0000
  O3          0.76927      0.64752      0.39388  1.0000
  O2          0.31264      0.09343      0.74273  1.0000
  O2          0.90268      0.22792      0.06699  1.0000
  O3          0.29699      0.20760      0.42868  1.0000
  O2          0.90166      0.66686      0.10252  1.0000
  O2          0.76620      0.10594      0.77755  1.0000
  O2          0.67081      0.76484      0.93931  1.0000
  O1          0.14520      0.35435      0.60707  1.0000
  O2          0.22012      0.89478      0.26628  1.0000
  O2          0.58281      0.55390      0.99384  1.0000
  O2          0.42883      0.01770      0.32042  1.0000
  O1          0.94622      0.37534      0.64919  1.0000
  O1          0.39817      0.42626      0.49562  1.0000
  O2          0.55633      0.97919      0.83320  1.0000
  O2          0.01787      0.57540      0.15849  1.0000
  O2          0.55126      0.57840      0.35072  1.0000
  O2          0.02417      0.43812      0.01248  1.0000
  O2          0.39645      0.97246      0.68907  1.0000
  O2          0.43764      0.41895      0.84740  1.0000
  O1          0.99338      0.55917      0.50305  1.0000
  O2          0.57307      0.01639      0.17377  1.0000
  O2          0.57092      0.15213      0.24631  1.0000
  O1          0.82193      0.43538      0.57934  1.0000
  O2          0.57818      0.41944      0.92021  1.0000
  O2          0.41600      0.84312      0.76128  1.0000
  O2          0.15677      0.57457      0.08599  1.0000
  O3          0.39193      0.56086      0.41542  1.0000
  F           0.44140      0.89410      0.24923  1.0000
  F           0.11129      0.56430      0.58635  1.0000
  F           0.44694      0.54678      0.92129  1.0000
  F           0.54332      0.10421      0.75985  1.0000
  F           0.89696      0.44494      0.08542  1.0000
  F           0.51571      0.41858      0.42757  1.0000
