data_cif

_audit_creation_method             'generated by GULP'

_symmetry_space_group_name_H-M     'P 1'
_symmetry_Int_Tables_number        1
_symmetry_cell_setting             triclinic

_cell_length_a                       12.0881
_cell_length_b                       12.0241
_cell_length_c                       29.8490
_cell_angle_alpha                   90.1069
_cell_angle_beta                    88.9501
_cell_angle_gamma                  119.9741

loop_
_atom_site_label
_atom_site_fract_x
_atom_site_fract_y
_atom_site_fract_z
_atom_site_occupancy
  Si          0.69960      0.37570      0.03389  1.0000
  Ge          0.65619      0.31309      0.37882  1.0000
  Si          0.68814      0.29615      0.70824  1.0000
  Si          0.30487      0.62041      0.54155  1.0000
  Si          0.38648      0.66848      0.86802  1.0000
  Ge          0.30423      0.68117      0.19779  1.0000
  Ge          0.35111      0.66498      0.30110  1.0000
  Si          0.32415      0.61450      0.96744  1.0000
  Si          0.31173      0.67959      0.64088  1.0000
  Si          0.62475      0.28745      0.80750  1.0000
  Si          0.69807      0.38098      0.48156  1.0000
  Si          0.70043      0.32410      0.13333  1.0000
  Si          0.52537      0.41002      0.97114  1.0000
  Ge          0.58439      0.09741      0.30923  1.0000
  Si          0.90440      0.47532      0.64682  1.0000
  Si          0.47935      0.58979      0.47310  1.0000
  Si          0.42558      0.88050      0.80430  1.0000
  Si          0.10384      0.51438      0.12910  1.0000
  Ge          0.43237      0.53055      0.37016  1.0000
  Si          0.10640      0.57268      0.02921  1.0000
  Si          0.48535      0.88950      0.70367  1.0000
  Si          0.58475      0.46100      0.87064  1.0000
  Si          0.90224      0.42080      0.54660  1.0000
  Ge          0.54555      0.11737      0.20522  1.0000
  Si          0.30844      0.39030      0.85559  1.0000
  Ge          0.59972      0.88447      0.18834  1.0000
  Si          0.10676      0.70016      0.52925  1.0000
  Ge          0.71321      0.58665      0.36414  1.0000
  Si          0.41445      0.09802      0.69205  1.0000
  Si          0.89585      0.29478      0.01656  1.0000
  Si          0.41520      0.30397      0.49132  1.0000
  Si          0.90750      0.60051      0.14679  1.0000
  Si          0.70271      0.08736      0.81948  1.0000
  Si          0.59844      0.69074      0.98336  1.0000
  Si          0.11133      0.40318      0.65863  1.0000
  Ge          0.29054      0.88042      0.32161  1.0000
  Si          0.24989      0.33288      0.95517  1.0000
  Ge          0.64687      0.87530      0.29176  1.0000
  Si          0.10452      0.75264      0.62906  1.0000
  Ge          0.76685      0.66915      0.46274  1.0000
  Si          0.34717      0.08096      0.79144  1.0000
  Si          0.89671      0.23910      0.11572  1.0000
  Ge          0.36246      0.24114      0.39014  1.0000
  Si          0.91022      0.65496      0.04689  1.0000
  Si          0.76107      0.08844      0.71981  1.0000
  Si          0.66350      0.73993      0.88374  1.0000
  Si          0.10035      0.34190      0.55942  1.0000
  Ge          0.25587      0.90850      0.22034  1.0000
  Si          0.96863      0.11634      0.96801  1.0000
  Ge          0.88272      0.83283      0.30699  1.0000
  Si          0.16933      0.03338      0.64361  1.0000
  Si          0.03954      0.88366      0.48193  1.0000
  Si          0.12958      0.14317      0.80585  1.0000
  Si          0.84577      0.96136      0.13136  1.0000
  Ge          0.11832      0.95535      0.37672  1.0000
  Si          0.84585      0.86998      0.03144  1.0000
  Si          0.04194      0.15290      0.70685  1.0000
  Si          0.88167      0.01968      0.86886  1.0000
  Si          0.16890      0.13003      0.54460  1.0000
  Ge          0.97528      0.85315      0.19898  1.0000
  O2          0.92434      0.99230      0.99913  1.0000
  O1          0.00787      0.93790      0.33904  1.0000
  O2          0.08798      0.07611      0.67473  1.0000
  O2          0.09809      0.01157      0.51162  1.0000
  O2          0.00503      0.06177      0.83705  1.0000
  O3          0.93803      0.94029      0.16243  1.0000
  O1          0.32462      0.54106      0.33632  1.0000
  O2          0.43632      0.76586      0.67100  1.0000
  O2          0.23362      0.65074      0.99762  1.0000
  O2          0.66120      0.40866      0.84000  1.0000
  O3          0.58834      0.24801      0.16929  1.0000
  O2          0.77486      0.34350      0.51711  1.0000
  O2          0.57550      0.33681      0.00343  1.0000
  O2          0.77810      0.42491      0.67866  1.0000
  O1          0.68286      0.20894      0.34798  1.0000
  O2          0.42329      0.65570      0.50727  1.0000
  O3          0.22439      0.55633      0.15991  1.0000
  O2          0.34973      0.75235      0.83521  1.0000
  O2          0.12097      0.20811      0.97441  1.0000
  O1          0.76938      0.87676      0.31852  1.0000
  O2          0.10629      0.87949      0.64886  1.0000
  O3          0.88984      0.79572      0.49192  1.0000
  O2          0.21882      0.07865      0.81033  1.0000
  O2          0.89210      0.11274      0.13564  1.0000
  O1          0.23188      0.11365      0.36898  1.0000
  O2          0.90896      0.77932      0.02609  1.0000
  O2          0.88951      0.09121      0.70068  1.0000
  O2          0.79183      0.86572      0.86452  1.0000
  O2          0.09895      0.21430      0.54052  1.0000
  O1          0.13486      0.92588      0.19622  1.0000
  O1          0.91874      0.86188      0.25068  1.0000
  O2          0.15907      0.07417      0.59370  1.0000
  O2          0.93444      0.06432      0.91804  1.0000
  O2          0.07828      0.13491      0.75633  1.0000
  O2          0.85999      0.92304      0.08098  1.0000
  O3          0.06057      0.92993      0.43133  1.0000
  O2          0.89685      0.19650      0.97902  1.0000
  O1          0.82467      0.67883      0.32099  1.0000
  O2          0.31912      0.10184      0.65498  1.0000
  O2          0.10683      0.79744      0.49148  1.0000
  O2          0.21240      0.29309      0.81826  1.0000
  O3          0.70018      0.87896      0.14668  1.0000
  O1          0.18856      0.86666      0.36596  1.0000
  O2          0.69508      0.78838      0.02051  1.0000
  O2          0.11176      0.30523      0.69608  1.0000
  O2          0.79881      0.08653      0.85656  1.0000
  O2          0.31851      0.22079      0.53205  1.0000
  O3          0.90548      0.69114      0.18541  1.0000
  O1          0.32079      0.61319      0.24662  1.0000
  O2          0.36535      0.67920      0.59026  1.0000
  O2          0.32809      0.67092      0.91744  1.0000
  O2          0.68386      0.34836      0.75820  1.0000
  O2          0.64225      0.32193      0.08411  1.0000
  O3          0.69148      0.30969      0.43536  1.0000
  O2          0.36995      0.32271      0.97413  1.0000
  O1          0.67491      0.02927      0.29556  1.0000
  O2          0.97338      0.63131      0.64854  1.0000
  O3          0.63003      0.66796      0.48169  1.0000
  O2          0.33749      0.94781      0.80813  1.0000
  O2          0.02840      0.35871      0.13345  1.0000
  O1          0.34298      0.36728      0.37816  1.0000
  O2          0.03996      0.66179      0.02748  1.0000
  O2          0.64075      0.95821      0.70055  1.0000
  O2          0.67307      0.61662      0.86663  1.0000
  O2          0.97021      0.33341      0.54169  1.0000
  O1          0.38557      0.03248      0.19427  1.0000
  O2          0.76451      0.29855      0.01057  1.0000
  O1          0.74454      0.46095      0.35535  1.0000
  O2          0.54854      0.23160      0.68507  1.0000
  O2          0.23682      0.69492      0.51984  1.0000
  O2          0.31186      0.52505      0.84682  1.0000
  O1          0.44985      0.77578      0.17142  1.0000
  O1          0.25562      0.72336      0.31953  1.0000
  O2          0.46448      0.69038      0.99018  1.0000
  O2          0.24502      0.53696      0.66367  1.0000
  O2          0.69902      0.21851      0.82838  1.0000
  O2          0.55506      0.32677      0.50279  1.0000
  O2          0.77463      0.46700      0.15438  1.0000
  O2          0.78298      0.53091      0.02899  1.0000
  O1          0.49506      0.24770      0.36658  1.0000
  O2          0.76284      0.21571      0.70157  1.0000
  O2          0.22630      0.46457      0.53849  1.0000
  O2          0.54147      0.74140      0.86327  1.0000
  O1          0.21656      0.75562      0.20409  1.0000
  O1          0.50657      0.76723      0.31778  1.0000
  O2          0.25012      0.45920      0.97351  1.0000
  O2          0.22972      0.75242      0.64671  1.0000
  O2          0.46976      0.20416      0.81202  1.0000
  O3          0.77257      0.53363      0.47883  1.0000
  O2          0.77220      0.23971      0.13598  1.0000
  O2          0.23620      0.31642      0.90152  1.0000
  O1          0.64011      0.83410      0.23588  1.0000
  O2          0.10507      0.77049      0.57539  1.0000
  O1          0.79768      0.69887      0.40707  1.0000
  O2          0.33649      0.08883      0.73783  1.0000
  O2          0.89731      0.22247      0.06195  1.0000
  O3          0.36299      0.21788      0.44800  1.0000
  O2          0.91273      0.67550      0.10056  1.0000
  O2          0.77471      0.08608      0.77339  1.0000
  O2          0.67517      0.75912      0.93732  1.0000
  O2          0.10254      0.32630      0.61301  1.0000
  O1          0.22949      0.92192      0.27681  1.0000
  O2          0.58060      0.55087      0.99322  1.0000
  O1          0.44141      0.99590      0.33657  1.0000
  O2          0.98974      0.42101      0.66912  1.0000
  O2          0.41944      0.43905      0.48595  1.0000
  O2          0.56381      0.96239      0.82741  1.0000
  O2          0.03049      0.58261      0.15269  1.0000
  O1          0.57690      0.58501      0.34312  1.0000
  O2          0.02061      0.43312      0.00641  1.0000
  O2          0.42974      0.97454      0.68156  1.0000
  O2          0.44686      0.40379      0.84715  1.0000
  O2          0.98150      0.56099      0.52240  1.0000
  O1          0.62556      0.03755      0.19140  1.0000
  O1          0.56807      0.16629      0.26054  1.0000
  O2          0.85177      0.42105      0.59722  1.0000
  O2          0.58053      0.40896      0.92116  1.0000
  O2          0.42973      0.83283      0.75356  1.0000
  O2          0.15755      0.56742      0.07862  1.0000
  O3          0.44807      0.60608      0.42257  1.0000
  F           0.42203      0.88290      0.25447  1.0000
  F           0.10951      0.54964      0.59290  1.0000
  F           0.45344      0.54064      0.91914  1.0000
  F           0.55807      0.09261      0.75496  1.0000
  F           0.89884      0.44366      0.08141  1.0000
  F           0.59499      0.47679      0.41319  1.0000
