data_cif

_audit_creation_method             'generated by GULP'

_symmetry_space_group_name_H-M     'P 1'
_symmetry_Int_Tables_number        1
_symmetry_cell_setting             triclinic

_cell_length_a                       12.0486
_cell_length_b                       12.0803
_cell_length_c                       29.9028
_cell_angle_alpha                   89.9538
_cell_angle_beta                    89.8026
_cell_angle_gamma                  119.9371

loop_
_atom_site_label
_atom_site_fract_x
_atom_site_fract_y
_atom_site_fract_z
_atom_site_occupancy
  Si          0.69960      0.37570      0.03389  1.0000
  Ge          0.60902      0.30143      0.36514  1.0000
  Si          0.66941      0.29170      0.70952  1.0000
  Si          0.31624      0.63429      0.54122  1.0000
  Si          0.37576      0.66668      0.87035  1.0000
  Si          0.31504      0.69777      0.19530  1.0000
  Si          0.36029      0.69315      0.29520  1.0000
  Si          0.31830      0.61274      0.96959  1.0000
  Si          0.29634      0.67383      0.64289  1.0000
  Si          0.61259      0.28576      0.80919  1.0000
  Ge          0.68333      0.36241      0.46732  1.0000
  Si          0.70090      0.32159      0.13293  1.0000
  Si          0.52339      0.41136      0.97170  1.0000
  Si          0.57205      0.10067      0.29478  1.0000
  Ge          0.87945      0.45833      0.64155  1.0000
  Ge          0.46456      0.57820      0.47088  1.0000
  Si          0.41292      0.87870      0.80745  1.0000
  Si          0.10504      0.52364      0.13250  1.0000
  Ge          0.40808      0.53883      0.36689  1.0000
  Si          0.10548      0.57589      0.03223  1.0000
  Si          0.46787      0.88608      0.70723  1.0000
  Si          0.57695      0.46229      0.87142  1.0000
  Ge          0.89093      0.41210      0.54022  1.0000
  Si          0.52633      0.10627      0.19465  1.0000
  Si          0.29861      0.39043      0.85701  1.0000
  Si          0.59297      0.89519      0.18118  1.0000
  Ge          0.09839      0.69562      0.52478  1.0000
  Ge          0.68721      0.58788      0.34765  1.0000
  Si          0.39361      0.09054      0.69472  1.0000
  Si          0.89830      0.29749      0.01901  1.0000
  Ge          0.39600      0.28964      0.48373  1.0000
  Si          0.89939      0.59783      0.14710  1.0000
  Si          0.69139      0.08670      0.82143  1.0000
  Si          0.59495      0.68999      0.98453  1.0000
  Si          0.09842      0.39017      0.65743  1.0000
  Si          0.29022      0.89987      0.30794  1.0000
  Si          0.24581      0.33318      0.95636  1.0000
  Si          0.64152      0.89477      0.28071  1.0000
  Si          0.07996      0.74462      0.62621  1.0000
  Ge          0.74668      0.64850      0.44974  1.0000
  Si          0.33354      0.07803      0.79407  1.0000
  Si          0.90609      0.24650      0.11833  1.0000
  Ge          0.32830      0.25070      0.38221  1.0000
  Si          0.90626      0.65466      0.04752  1.0000
  Si          0.74532      0.08637      0.72180  1.0000
  Si          0.65517      0.73952      0.88515  1.0000
  Ge          0.10160      0.34500      0.55438  1.0000
  Si          0.24747      0.90850      0.20816  1.0000
  Si          0.96562      0.11627      0.97013  1.0000
  Ge          0.86596      0.83630      0.29445  1.0000
  Si          0.14689      0.02377      0.64527  1.0000
  Ge          0.03624      0.87968      0.46953  1.0000
  Si          0.11742      0.14213      0.80826  1.0000
  Si          0.84287      0.96655      0.13198  1.0000
  Ge          0.11286      0.97044      0.36286  1.0000
  Si          0.84332      0.87129      0.03305  1.0000
  Si          0.02553      0.14434      0.70885  1.0000
  Si          0.87179      0.01916      0.87114  1.0000
  Ge          0.15813      0.11207      0.54164  1.0000
  Si          0.97224      0.84928      0.19436  1.0000
  O2          0.92275      0.99330      0.00130  1.0000
  O1          0.96799      0.91022      0.33811  1.0000
  O2          0.06333      0.05850      0.67870  1.0000
  O1          0.05491      0.98357      0.51178  1.0000
  O2          0.99511      0.06202      0.83989  1.0000
  O2          0.92257      0.92454      0.16357  1.0000
  O3          0.32048      0.58046      0.33033  1.0000
  O2          0.41597      0.76112      0.67507  1.0000
  O2          0.23167      0.65083      0.00063  1.0000
  O2          0.65141      0.40874      0.84077  1.0000
  O2          0.57712      0.23389      0.16416  1.0000
  O1          0.76545      0.32269      0.50305  1.0000
  O2          0.57471      0.33692      0.00307  1.0000
  O3          0.75370      0.41462      0.67962  1.0000
  O3          0.65019      0.21697      0.32774  1.0000
  O3          0.43763      0.67106      0.51064  1.0000
  O2          0.23104      0.57465      0.16365  1.0000
  O2          0.33803      0.75166      0.83829  1.0000
  O2          0.11898      0.20727      0.97544  1.0000
  O3          0.76525      0.89869      0.30074  1.0000
  O2          0.08975      0.87126      0.64891  1.0000
  O1          0.87538      0.78288      0.47084  1.0000
  O2          0.20688      0.07781      0.81319  1.0000
  O2          0.90460      0.11957      0.13740  1.0000
  O1          0.19969      0.12942      0.35377  1.0000
  O2          0.90601      0.78050      0.02813  1.0000
  O2          0.87286      0.08830      0.70260  1.0000
  O2          0.78197      0.86590      0.86617  1.0000
  O1          0.12127      0.22862      0.53040  1.0000
  O2          0.12460      0.90927      0.18595  1.0000
  O3          0.94836      0.87463      0.24464  1.0000
  O3          0.13274      0.06962      0.59753  1.0000
  O2          0.92468      0.06249      0.92059  1.0000
  O2          0.06251      0.13178      0.75901  1.0000
  O2          0.85658      0.92643      0.08237  1.0000
  O1          0.09611      0.95476      0.42000  1.0000
  O2          0.89709      0.19842      0.98189  1.0000
  O1          0.78373      0.67719      0.30283  1.0000
  O2          0.29788      0.09405      0.65741  1.0000
  O1          0.11629      0.80074      0.48294  1.0000
  O2          0.20066      0.29221      0.81990  1.0000
  O2          0.69208      0.89603      0.14388  1.0000
  O3          0.19211      0.89115      0.34565  1.0000
  O2          0.69254      0.78895      0.02153  1.0000
  O2          0.10128      0.29394      0.69527  1.0000
  O2          0.78919      0.08642      0.85855  1.0000
  O1          0.31352      0.17790      0.52587  1.0000
  O2          0.90009      0.69686      0.18438  1.0000
  O2          0.30836      0.63877      0.24499  1.0000
  O2          0.35188      0.66658      0.59421  1.0000
  O2          0.31861      0.66784      0.91973  1.0000
  O2          0.66725      0.34293      0.75972  1.0000
  O2          0.64352      0.32070      0.08360  1.0000
  O1          0.70368      0.33426      0.41158  1.0000
  O2          0.36785      0.32427      0.97477  1.0000
  O2          0.65054      0.02479      0.29890  1.0000
  O3          0.95371      0.62477      0.64551  1.0000
  O1          0.62401      0.67816      0.46085  1.0000
  O2          0.32471      0.94591      0.81095  1.0000
  O2          0.03776      0.36857      0.13600  1.0000
  O1          0.33530      0.37857      0.35535  1.0000
  O2          0.03741      0.66323      0.02913  1.0000
  O2          0.62341      0.95546      0.70286  1.0000
  O2          0.66465      0.61730      0.86730  1.0000
  O1          0.95466      0.31163      0.53650  1.0000
  O2          0.37120      0.03928      0.19084  1.0000
  O2          0.76614      0.29986      0.01159  1.0000
  O1          0.64823      0.43662      0.33405  1.0000
  O2          0.52719      0.22239      0.68702  1.0000
  O3          0.24942      0.71204      0.52420  1.0000
  O2          0.30064      0.52424      0.84853  1.0000
  O2          0.45818      0.76410      0.17341  1.0000
  O2          0.29131      0.76810      0.31546  1.0000
  O2          0.46067      0.68858      0.99159  1.0000
  O2          0.22241      0.53182      0.66451  1.0000
  O2          0.68822      0.21758      0.83003  1.0000
  O1          0.52342      0.26579      0.47938  1.0000
  O2          0.76693      0.46386      0.15508  1.0000
  O2          0.78099      0.53036      0.02836  1.0000
  O1          0.44822      0.21439      0.37449  1.0000
  O2          0.74608      0.21220      0.70299  1.0000
  O3          0.22668      0.48361      0.53196  1.0000
  O2          0.53098      0.74022      0.86534  1.0000
  O2          0.24430      0.78141      0.18976  1.0000
  O2          0.51598      0.76808      0.29895  1.0000
  O2          0.24537      0.45816      0.97512  1.0000
  O2          0.20463      0.73467      0.64032  1.0000
  O2          0.45774      0.20134      0.81417  1.0000
  O1          0.73220      0.52033      0.47876  1.0000
  O2          0.78222      0.24795      0.13816  1.0000
  O2          0.22872      0.31703      0.90281  1.0000
  O2          0.66308      0.89368      0.22700  1.0000
  O3          0.07566      0.76318      0.57346  1.0000
  O1          0.78383      0.64717      0.39411  1.0000
  O2          0.31883      0.08355      0.74062  1.0000
  O2          0.90342      0.22866      0.06478  1.0000
  O1          0.29340      0.24007      0.43854  1.0000
  O2          0.90401      0.67085      0.10110  1.0000
  O2          0.76149      0.08519      0.77534  1.0000
  O2          0.66991      0.75772      0.93864  1.0000
  O3          0.11121      0.32907      0.61183  1.0000
  O2          0.22254      0.90642      0.26159  1.0000
  O2          0.57918      0.55144      0.99414  1.0000
  O2          0.42778      0.02644      0.31611  1.0000
  O3          0.97048      0.39592      0.66356  1.0000
  O1          0.43006      0.44044      0.49932  1.0000
  O2          0.55299      0.96216      0.82998  1.0000
  O2          0.02220      0.58093      0.15569  1.0000
  O1          0.56465      0.62105      0.34997  1.0000
  O2          0.02213      0.43582      0.00963  1.0000
  O2          0.40631      0.96550      0.68474  1.0000
  O2          0.43736      0.40466      0.84811  1.0000
  O1          0.96795      0.55538      0.50954  1.0000
  O2          0.58250      0.02166      0.17228  1.0000
  O2          0.57762      0.15708      0.24478  1.0000
  O1          0.81079      0.40220      0.59062  1.0000
  O2          0.57648      0.41143      0.92168  1.0000
  O2          0.41509      0.82937      0.75693  1.0000
  O2          0.15716      0.57551      0.08229  1.0000
  O1          0.38170      0.56495      0.42197  1.0000
  F           0.44241      0.89789      0.24449  1.0000
  F           0.05487      0.52126      0.58244  1.0000
  F           0.44693      0.54020      0.92015  1.0000
  F           0.54206      0.08639      0.75668  1.0000
  F           0.89836      0.44714      0.08295  1.0000
  F           0.53367      0.44741      0.41533  1.0000
