data_cif

_audit_creation_method             'generated by GULP'

_symmetry_space_group_name_H-M     'P 1'
_symmetry_Int_Tables_number        1
_symmetry_cell_setting             triclinic

_cell_length_a                       12.1126
_cell_length_b                       12.0451
_cell_length_c                       29.8217
_cell_angle_alpha                   89.8093
_cell_angle_beta                    88.8702
_cell_angle_gamma                  120.3032

loop_
_atom_site_label
_atom_site_fract_x
_atom_site_fract_y
_atom_site_fract_z
_atom_site_occupancy
  Si          0.69960      0.37570      0.03389  1.0000
  Ge          0.63960      0.33075      0.36970  1.0000
  Si          0.68706      0.29528      0.70701  1.0000
  Ge          0.29956      0.62800      0.54187  1.0000
  Si          0.38612      0.67339      0.86939  1.0000
  Si          0.30983      0.69100      0.19634  1.0000
  Ge          0.36650      0.72074      0.29378  1.0000
  Si          0.32277      0.61586      0.96876  1.0000
  Si          0.31732      0.68390      0.64105  1.0000
  Si          0.62719      0.29542      0.80631  1.0000
  Ge          0.69670      0.39532      0.47173  1.0000
  Si          0.70355      0.32178      0.13326  1.0000
  Si          0.52696      0.41190      0.97080  1.0000
  Si          0.57890      0.11110      0.30149  1.0000
  Si          0.90087      0.46824      0.64133  1.0000
  Ge          0.48970      0.63001      0.46902  1.0000
  Si          0.42458      0.88876      0.80765  1.0000
  Si          0.10639      0.52734      0.12997  1.0000
  Ge          0.44771      0.58477      0.36141  1.0000
  Si          0.10581      0.58042      0.02968  1.0000
  Si          0.48148      0.89167      0.70715  1.0000
  Si          0.58609      0.46683      0.86993  1.0000
  Si          0.89071      0.41268      0.53868  1.0000
  Si          0.53131      0.10993      0.19986  1.0000
  Si          0.30958      0.39664      0.85596  1.0000
  Si          0.59724      0.89174      0.18822  1.0000
  Ge          0.10254      0.70502      0.51936  1.0000
  Ge          0.72216      0.61572      0.36059  1.0000
  Si          0.41060      0.09843      0.69264  1.0000
  Si          0.89949      0.30009      0.01767  1.0000
  Ge          0.41841      0.33959      0.48966  1.0000
  Si          0.90184      0.60037      0.14662  1.0000
  Si          0.70347      0.09525      0.82091  1.0000
  Si          0.59700      0.69140      0.98348  1.0000
  Si          0.11500      0.39827      0.65350  1.0000
  Si          0.28692      0.90908      0.31709  1.0000
  Si          0.25112      0.33561      0.95561  1.0000
  Si          0.65386      0.90154      0.29005  1.0000
  Si          0.10146      0.75189      0.62385  1.0000
  Ge          0.77032      0.68943      0.45896  1.0000
  Si          0.34734      0.08853      0.79248  1.0000
  Si          0.90799      0.24791      0.11711  1.0000
  Ge          0.36130      0.29101      0.38600  1.0000
  Si          0.90654      0.65711      0.04668  1.0000
  Si          0.75943      0.08888      0.72120  1.0000
  Si          0.66320      0.74511      0.88391  1.0000
  Ge          0.10272      0.34273      0.55048  1.0000
  Si          0.24668      0.90979      0.21426  1.0000
  Si          0.96899      0.11980      0.96928  1.0000
  Ge          0.88736      0.86006      0.29831  1.0000
  Si          0.16283      0.02672      0.64457  1.0000
  Ge          0.04893      0.90138      0.46913  1.0000
  Si          0.13005      0.15057      0.80655  1.0000
  Si          0.84605      0.96739      0.13288  1.0000
  Ge          0.12472      0.01165      0.36452  1.0000
  Si          0.84067      0.87225      0.03297  1.0000
  Si          0.03929      0.15036      0.70703  1.0000
  Si          0.88139      0.02660      0.86992  1.0000
  Ge          0.17554      0.13152      0.54284  1.0000
  Si          0.97261      0.85181      0.19480  1.0000
  O2          0.92265      0.99630      0.00125  1.0000
  O1          0.01651      0.98079      0.32477  1.0000
  O2          0.08144      0.06654      0.67735  1.0000
  O1          0.15133      0.01826      0.50483  1.0000
  O2          0.00574      0.07007      0.83836  1.0000
  O2          0.93681      0.92926      0.15891  1.0000
  O1          0.33739      0.59493      0.32986  1.0000
  O2          0.42762      0.76461      0.67689  1.0000
  O2          0.23415      0.65543      0.99824  1.0000
  O2          0.66316      0.41743      0.83827  1.0000
  O2          0.58177      0.23334      0.16663  1.0000
  O3          0.76396      0.33870      0.51097  1.0000
  O2          0.57640      0.33739      0.00300  1.0000
  O2          0.77732      0.41909      0.67460  1.0000
  O3          0.66076      0.23025      0.33236  1.0000
  O1          0.43636      0.69478      0.50725  1.0000
  O2          0.23414      0.58210      0.15912  1.0000
  O2          0.34829      0.76000      0.83857  1.0000
  O2          0.12203      0.20938      0.97487  1.0000
  O3          0.78514      0.92107      0.30632  1.0000
  O2          0.10406      0.87253      0.64926  1.0000
  O1          0.89318      0.82089      0.48625  1.0000
  O2          0.21973      0.08708      0.81141  1.0000
  O2          0.90725      0.12148      0.13657  1.0000
  O1          0.22499      0.17203      0.36196  1.0000
  O2          0.90510      0.78322      0.02790  1.0000
  O2          0.88612      0.08859      0.70220  1.0000
  O2          0.79105      0.87278      0.86467  1.0000
  O1          0.07989      0.19537      0.53401  1.0000
  O2          0.12710      0.91255      0.19196  1.0000
  O3          0.92582      0.87272      0.24131  1.0000
  O3          0.14522      0.06109      0.59543  1.0000
  O2          0.93194      0.06701      0.91955  1.0000
  O2          0.07845      0.14178      0.75714  1.0000
  O2          0.84415      0.92358      0.08232  1.0000
  O1          0.06315      0.97137      0.41820  1.0000
  O2          0.90054      0.20252      0.98026  1.0000
  O1          0.83719      0.71358      0.31700  1.0000
  O2          0.31419      0.09927      0.65562  1.0000
  O1          0.09467      0.78815      0.47428  1.0000
  O2          0.21348      0.30084      0.81845  1.0000
  O2          0.69936      0.89673      0.15098  1.0000
  O3          0.20376      0.92696      0.35494  1.0000
  O2          0.69156      0.78885      0.02080  1.0000
  O2          0.10920      0.30027      0.69260  1.0000
  O2          0.80004      0.09520      0.85796  1.0000
  O1          0.32942      0.25495      0.53655  1.0000
  O2          0.90447      0.69925      0.18392  1.0000
  O3          0.29489      0.62618      0.24398  1.0000
  O3          0.38066      0.68658      0.59395  1.0000
  O2          0.32728      0.67279      0.91886  1.0000
  O2          0.68526      0.35356      0.75617  1.0000
  O2          0.64395      0.32034      0.08444  1.0000
  O1          0.72383      0.35441      0.41886  1.0000
  O2          0.37117      0.32490      0.97395  1.0000
  O2          0.65457      0.03336      0.30258  1.0000
  O2          0.97603      0.62344      0.64370  1.0000
  O1          0.65312      0.72802      0.46213  1.0000
  O2          0.33703      0.95614      0.81058  1.0000
  O2          0.03848      0.37133      0.13443  1.0000
  O1          0.39555      0.42120      0.35504  1.0000
  O2          0.03803      0.66775      0.02711  1.0000
  O2          0.63684      0.95928      0.70267  1.0000
  O2          0.67369      0.62307      0.86635  1.0000
  O3          0.95795      0.32721      0.53660  1.0000
  O2          0.37671      0.03863      0.19771  1.0000
  O2          0.76632      0.29975      0.01161  1.0000
  O1          0.70833      0.47363      0.34084  1.0000
  O2          0.54697      0.23034      0.68417  1.0000
  O1          0.24740      0.71985      0.51334  1.0000
  O2          0.31253      0.53117      0.84740  1.0000
  O2          0.46031      0.76536      0.17863  1.0000
  O3          0.27493      0.77394      0.32573  1.0000
  O2          0.46318      0.68987      0.99114  1.0000
  O2          0.23932      0.53749      0.66212  1.0000
  O2          0.70250      0.22838      0.82770  1.0000
  O1          0.53689      0.30151      0.48418  1.0000
  O2          0.76990      0.46407      0.15539  1.0000
  O2          0.78186      0.53138      0.02819  1.0000
  O1          0.47821      0.24983      0.38030  1.0000
  O2          0.76320      0.21646      0.70204  1.0000
  O1          0.23850      0.46299      0.52528  1.0000
  O2          0.54124      0.74699      0.86381  1.0000
  O2          0.24891      0.78540      0.19608  1.0000
  O3          0.53221      0.78080      0.31178  1.0000
  O2          0.24964      0.46019      0.97467  1.0000
  O2          0.22802      0.74903      0.63743  1.0000
  O2          0.47204      0.21259      0.81166  1.0000
  O1          0.75735      0.55441      0.48476  1.0000
  O2          0.78210      0.24567      0.13726  1.0000
  O2          0.23681      0.32091      0.90191  1.0000
  O2          0.65478      0.88304      0.23520  1.0000
  O3          0.09036      0.76891      0.57142  1.0000
  O1          0.82496      0.70228      0.40415  1.0000
  O2          0.33573      0.09364      0.73878  1.0000
  O2          0.90676      0.23144      0.06338  1.0000
  O1          0.32545      0.29215      0.44248  1.0000
  O2          0.90500      0.67248      0.10034  1.0000
  O2          0.77272      0.08842      0.77490  1.0000
  O2          0.67453      0.76240      0.93755  1.0000
  O3          0.12294      0.33270      0.60852  1.0000
  O2          0.22651      0.91116      0.26804  1.0000
  O2          0.58188      0.55235      0.99291  1.0000
  O2          0.43317      0.02951      0.32098  1.0000
  O2          0.98864      0.41109      0.65759  1.0000
  O1          0.48432      0.49897      0.49658  1.0000
  O2          0.56294      0.97273      0.83049  1.0000
  O2          0.02525      0.58522      0.15400  1.0000
  O1          0.60881      0.65680      0.34837  1.0000
  O2          0.02170      0.44052      0.00709  1.0000
  O2          0.42410      0.97351      0.68394  1.0000
  O2          0.44769      0.40997      0.84701  1.0000
  O3          0.97558      0.54917      0.51359  1.0000
  O2          0.58419      0.01812      0.18257  1.0000
  O2          0.57703      0.15844      0.25014  1.0000
  O2          0.85502      0.42528      0.59086  1.0000
  O2          0.58195      0.41297      0.92042  1.0000
  O2          0.42835      0.83875      0.75755  1.0000
  O2          0.15723      0.57911      0.07931  1.0000
  O1          0.42030      0.60635      0.41782  1.0000
  F           0.43007      0.86486      0.25829  1.0000
  F           0.14061      0.55333      0.57685  1.0000
  F           0.45373      0.54393      0.91931  1.0000
  F           0.55834      0.09832      0.75561  1.0000
  F           0.89889      0.44793      0.08229  1.0000
  F           0.60384      0.50119      0.41283  1.0000
