data_cif

_audit_creation_method             'generated by GULP'

_symmetry_space_group_name_H-M     'P 1'
_symmetry_Int_Tables_number        1
_symmetry_cell_setting             triclinic

_cell_length_a                       12.1053
_cell_length_b                       12.0657
_cell_length_c                       29.8513
_cell_angle_alpha                   90.0517
_cell_angle_beta                    89.0246
_cell_angle_gamma                  120.1929

loop_
_atom_site_label
_atom_site_fract_x
_atom_site_fract_y
_atom_site_fract_z
_atom_site_occupancy
  Si          0.69960      0.37570      0.03389  1.0000
  Si          0.65817      0.31596      0.37842  1.0000
  Si          0.68750      0.29716      0.70864  1.0000
  Si          0.30825      0.62048      0.54375  1.0000
  Si          0.38769      0.67253      0.86995  1.0000
  Ge          0.29867      0.68578      0.20200  1.0000
  Ge          0.35374      0.67561      0.30331  1.0000
  Si          0.32672      0.61654      0.96930  1.0000
  Si          0.30734      0.68012      0.64277  1.0000
  Si          0.62629      0.29172      0.80819  1.0000
  Si          0.69147      0.37763      0.48072  1.0000
  Si          0.69723      0.32648      0.13382  1.0000
  Si          0.52736      0.41284      0.97157  1.0000
  Ge          0.58378      0.10346      0.31139  1.0000
  Si          0.90081      0.47529      0.64540  1.0000
  Si          0.47734      0.58383      0.47550  1.0000
  Si          0.42495      0.88495      0.80700  1.0000
  Si          0.10280      0.52366      0.13092  1.0000
  Ge          0.42998      0.53474      0.37156  1.0000
  Si          0.10814      0.57523      0.03046  1.0000
  Si          0.48150      0.88942      0.70630  1.0000
  Si          0.58670      0.46564      0.87106  1.0000
  Si          0.89992      0.41979      0.54517  1.0000
  Ge          0.54426      0.12248      0.20672  1.0000
  Si          0.31004      0.39535      0.85678  1.0000
  Ge          0.59050      0.88848      0.18866  1.0000
  Si          0.10979      0.69678      0.52868  1.0000
  Ge          0.70475      0.58328      0.37052  1.0000
  Si          0.41230      0.09775      0.69446  1.0000
  Si          0.89692      0.29658      0.01836  1.0000
  Si          0.40886      0.29705      0.49100  1.0000
  Si          0.90270      0.60476      0.14537  1.0000
  Si          0.70288      0.09175      0.82126  1.0000
  Si          0.60116      0.69284      0.98497  1.0000
  Si          0.10589      0.40229      0.65949  1.0000
  Ge          0.28884      0.88819      0.32422  1.0000
  Si          0.25170      0.33590      0.95624  1.0000
  Ge          0.64696      0.88357      0.29080  1.0000
  Si          0.10134      0.75344      0.62776  1.0000
  Si          0.76188      0.66392      0.46685  1.0000
  Si          0.34716      0.08486      0.79378  1.0000
  Si          0.89747      0.24687      0.11802  1.0000
  Ge          0.36820      0.24619      0.38838  1.0000
  Si          0.91017      0.65520      0.04513  1.0000
  Si          0.75816      0.08885      0.72155  1.0000
  Si          0.66479      0.74361      0.88524  1.0000
  Si          0.09842      0.34338      0.56018  1.0000
  Ge          0.25036      0.91459      0.22151  1.0000
  Si          0.97010      0.11927      0.96964  1.0000
  Ge          0.87856      0.83047      0.31154  1.0000
  Si          0.16687      0.03473      0.64588  1.0000
  Ge          0.03741      0.88050      0.48400  1.0000
  Si          0.13018      0.14809      0.80761  1.0000
  Ge          0.84013      0.96389      0.13298  1.0000
  Ge          0.11850      0.96460      0.37791  1.0000
  Si          0.85032      0.87062      0.03221  1.0000
  Si          0.03864      0.15268      0.70868  1.0000
  Si          0.88190      0.02399      0.87046  1.0000
  Si          0.16387      0.13003      0.54730  1.0000
  Ge          0.96987      0.85053      0.20234  1.0000
  O2          0.92618      0.99680      0.00137  1.0000
  O1          0.99864      0.94289      0.34474  1.0000
  O2          0.08382      0.07196      0.67849  1.0000
  O3          0.07716      0.00136      0.52191  1.0000
  O2          0.00610      0.06714      0.83909  1.0000
  O1          0.91867      0.93988      0.17537  1.0000
  O1          0.32354      0.55216      0.34003  1.0000
  O2          0.42983      0.76495      0.67405  1.0000
  O2          0.23652      0.65251      0.99945  1.0000
  O2          0.66292      0.41417      0.84004  1.0000
  O3          0.58547      0.25177      0.17025  1.0000
  O2          0.77357      0.34310      0.51448  1.0000
  O2          0.57582      0.33709      0.00322  1.0000
  O2          0.77472      0.42359      0.67758  1.0000
  O3          0.68504      0.21972      0.35004  1.0000
  O2          0.42924      0.65359      0.51103  1.0000
  O3          0.21938      0.56360      0.16321  1.0000
  O2          0.35001      0.75701      0.83803  1.0000
  O2          0.12283      0.21082      0.97546  1.0000
  O1          0.77583      0.88821      0.31439  1.0000
  O2          0.10198      0.88004      0.64689  1.0000
  O3          0.87547      0.77765      0.49386  1.0000
  O2          0.21944      0.08401      0.81235  1.0000
  O3          0.90154      0.12731      0.13793  1.0000
  O1          0.24493      0.11513      0.36506  1.0000
  O2          0.91015      0.77858      0.02305  1.0000
  O2          0.88595      0.09024      0.70263  1.0000
  O2          0.79230      0.87022      0.86589  1.0000
  O2          0.09993      0.21867      0.54097  1.0000
  O1          0.13107      0.92721      0.19523  1.0000
  O1          0.93740      0.84024      0.25813  1.0000
  O2          0.16466      0.09196      0.59829  1.0000
  O2          0.93362      0.06679      0.91987  1.0000
  O2          0.07713      0.13964      0.75839  1.0000
  O3          0.87455      0.91816      0.08250  1.0000
  O1          0.07393      0.95451      0.43355  1.0000
  O2          0.89869      0.19880      0.98105  1.0000
  O1          0.81986      0.67984      0.32967  1.0000
  O2          0.31577      0.09963      0.65784  1.0000
  O3          0.11363      0.79266      0.49048  1.0000
  O2          0.21365      0.29821      0.81947  1.0000
  O1          0.68139      0.88494      0.14331  1.0000
  O1          0.18038      0.86803      0.36648  1.0000
  O2          0.69807      0.79046      0.02239  1.0000
  O2          0.10672      0.30414      0.69664  1.0000
  O2          0.79969      0.09119      0.85815  1.0000
  O2          0.31156      0.20816      0.53050  1.0000
  O3          0.89453      0.69422      0.18277  1.0000
  O1          0.31680      0.61556      0.24972  1.0000
  O2          0.36450      0.67902      0.59289  1.0000
  O2          0.33003      0.67353      0.91954  1.0000
  O2          0.68486      0.35065      0.75855  1.0000
  O2          0.64066      0.32283      0.08412  1.0000
  O2          0.68972      0.31667      0.43204  1.0000
  O2          0.37184      0.32550      0.97471  1.0000
  O1          0.67554      0.03674      0.29893  1.0000
  O2          0.96964      0.63117      0.64694  1.0000
  O2          0.63096      0.66195      0.48139  1.0000
  O2          0.33724      0.95223      0.81102  1.0000
  O2          0.02703      0.36901      0.13555  1.0000
  O1          0.34682      0.36858      0.37357  1.0000
  O2          0.04105      0.66287      0.02704  1.0000
  O2          0.63699      0.95814      0.70280  1.0000
  O2          0.67454      0.62135      0.86751  1.0000
  O2          0.96815      0.33310      0.54153  1.0000
  O1          0.38449      0.03204      0.19526  1.0000
  O2          0.76515      0.29880      0.01141  1.0000
  O3          0.73660      0.45653      0.35839  1.0000
  O2          0.54646      0.23078      0.68647  1.0000
  O2          0.24156      0.69422      0.52100  1.0000
  O2          0.31330      0.52974      0.84833  1.0000
  O1          0.44042      0.77839      0.17304  1.0000
  O1          0.25829      0.73336      0.32166  1.0000
  O2          0.46727      0.69203      0.99207  1.0000
  O2          0.23827      0.53724      0.66524  1.0000
  O2          0.70057      0.22357      0.82948  1.0000
  O2          0.54675      0.31119      0.50095  1.0000
  O2          0.77116      0.47030      0.15373  1.0000
  O2          0.78327      0.53031      0.02751  1.0000
  O3          0.50545      0.25234      0.36826  1.0000
  O2          0.76073      0.21565      0.70269  1.0000
  O2          0.22653      0.46544      0.54031  1.0000
  O2          0.54270      0.74543      0.86511  1.0000
  O1          0.21094      0.75886      0.21063  1.0000
  O1          0.51243      0.76905      0.31808  1.0000
  O2          0.25229      0.46140      0.97517  1.0000
  O2          0.22591      0.75354      0.64643  1.0000
  O2          0.47123      0.20877      0.81345  1.0000
  O2          0.75632      0.53077      0.48073  1.0000
  O2          0.77025      0.24421      0.13724  1.0000
  O2          0.23752      0.32067      0.90258  1.0000
  O1          0.64579      0.84636      0.23468  1.0000
  O2          0.10339      0.77004      0.57383  1.0000
  O3          0.79471      0.69220      0.41484  1.0000
  O2          0.33533      0.09025      0.74021  1.0000
  O2          0.89620      0.22499      0.06420  1.0000
  O3          0.35256      0.21912      0.44633  1.0000
  O2          0.90837      0.67732      0.09860  1.0000
  O2          0.77316      0.08850      0.77510  1.0000
  O2          0.67746      0.76177      0.93889  1.0000
  O2          0.09789      0.32703      0.61377  1.0000
  O1          0.24115      0.93838      0.27805  1.0000
  O2          0.58298      0.55289      0.99432  1.0000
  O1          0.44244      0.99909      0.33876  1.0000
  O2          0.98413      0.42021      0.66860  1.0000
  O2          0.41810      0.43458      0.48982  1.0000
  O2          0.56365      0.96745      0.82990  1.0000
  O2          0.02871      0.59329      0.15253  1.0000
  O1          0.57825      0.59660      0.34704  1.0000
  O2          0.02290      0.43448      0.00850  1.0000
  O2          0.42597      0.97380      0.68415  1.0000
  O2          0.44831      0.40909      0.84795  1.0000
  O2          0.98266      0.55892      0.52086  1.0000
  O1          0.62443      0.04440      0.19262  1.0000
  O1          0.56569      0.16942      0.26227  1.0000
  O2          0.84819      0.42073      0.59562  1.0000
  O2          0.58255      0.41324      0.92149  1.0000
  O2          0.42724      0.83512      0.75648  1.0000
  O2          0.15838      0.57432      0.08041  1.0000
  O3          0.43708      0.59691      0.42627  1.0000
  F           0.43383      0.87913      0.25593  1.0000
  F           0.10612      0.55105      0.59261  1.0000
  F           0.45513      0.54396      0.92055  1.0000
  F           0.55657      0.09425      0.75701  1.0000
  F           0.89786      0.44724      0.08175  1.0000
  F           0.58288      0.47451      0.41420  1.0000
