data_cif

_audit_creation_method             'generated by GULP'

_symmetry_space_group_name_H-M     'P 1'
_symmetry_Int_Tables_number        1
_symmetry_cell_setting             triclinic

_cell_length_a                       12.0807
_cell_length_b                       12.0374
_cell_length_c                       29.9733
_cell_angle_alpha                   90.5298
_cell_angle_beta                    89.4898
_cell_angle_gamma                  120.0194

loop_
_atom_site_label
_atom_site_fract_x
_atom_site_fract_y
_atom_site_fract_z
_atom_site_occupancy
  Si          0.69960      0.37570      0.03389  1.0000
  Ge          0.62329      0.31316      0.36673  1.0000
  Si          0.67652      0.28808      0.70978  1.0000
  Ge          0.30899      0.61847      0.53807  1.0000
  Si          0.37946      0.66286      0.86883  1.0000
  Si          0.31947      0.70578      0.19204  1.0000
  Si          0.36113      0.69852      0.29117  1.0000
  Si          0.31980      0.61318      0.96778  1.0000
  Si          0.30556      0.67045      0.64030  1.0000
  Si          0.61846      0.28256      0.80894  1.0000
  Ge          0.68061      0.38364      0.46798  1.0000
  Si          0.70614      0.32681      0.13285  1.0000
  Si          0.52346      0.40942      0.97170  1.0000
  Si          0.57527      0.10393      0.29616  1.0000
  Si          0.88365      0.45702      0.64497  1.0000
  Ge          0.48669      0.61624      0.46323  1.0000
  Si          0.41847      0.87459      0.80604  1.0000
  Si          0.10965      0.53045      0.12945  1.0000
  Ge          0.42800      0.55690      0.35878  1.0000
  Si          0.10634      0.57863      0.02953  1.0000
  Si          0.47403      0.88392      0.70603  1.0000
  Si          0.57883      0.45707      0.87162  1.0000
  Ge          0.86953      0.39401      0.54123  1.0000
  Si          0.53319      0.11469      0.19609  1.0000
  Si          0.30148      0.38477      0.85621  1.0000
  Si          0.59897      0.90172      0.18127  1.0000
  Ge          0.08834      0.68541      0.52198  1.0000
  Ge          0.70486      0.59776      0.35097  1.0000
  Si          0.40008      0.08936      0.69464  1.0000
  Si          0.89857      0.29872      0.01763  1.0000
  Ge          0.39726      0.32225      0.48558  1.0000
  Si          0.90542      0.60535      0.14565  1.0000
  Si          0.69676      0.08277      0.82078  1.0000
  Si          0.59524      0.69012      0.98382  1.0000
  Ge          0.10173      0.38482      0.65749  1.0000
  Si          0.29220      0.90404      0.30653  1.0000
  Si          0.24704      0.33179      0.95542  1.0000
  Si          0.64507      0.89654      0.28080  1.0000
  Si          0.08599      0.73783      0.62444  1.0000
  Ge          0.76704      0.67777      0.44925  1.0000
  Si          0.33962      0.07478      0.79383  1.0000
  Si          0.91055      0.25177      0.11654  1.0000
  Ge          0.33930      0.26469      0.38249  1.0000
  Si          0.90722      0.65644      0.04621  1.0000
  Si          0.75139      0.08166      0.72148  1.0000
  Si          0.65725      0.73583      0.88474  1.0000
  Ge          0.08764      0.34157      0.55580  1.0000
  Si          0.25270      0.91726      0.20714  1.0000
  Si          0.96641      0.11612      0.96947  1.0000
  Ge          0.87343      0.84265      0.29479  1.0000
  Si          0.15348      0.01864      0.64449  1.0000
  Ge          0.05208      0.89026      0.46849  1.0000
  Si          0.12065      0.13351      0.80820  1.0000
  Si          0.84799      0.97198      0.13125  1.0000
  Ge          0.11979      0.98120      0.36158  1.0000
  Si          0.84308      0.87222      0.03236  1.0000
  Si          0.03066      0.13688      0.70953  1.0000
  Si          0.87531      0.01501      0.87078  1.0000
  Ge          0.16260      0.12787      0.54373  1.0000
  Si          0.97787      0.85808      0.19384  1.0000
  O2          0.92308      0.99465      0.00113  1.0000
  O1          0.98187      0.93736      0.33497  1.0000
  O2          0.06836      0.05310      0.67737  1.0000
  O1          0.12807      0.00137      0.50917  1.0000
  O2          0.99982      0.05605      0.84051  1.0000
  O2          0.92963      0.93263      0.16232  1.0000
  O3          0.32634      0.58231      0.32434  1.0000
  O2          0.42342      0.76210      0.67264  1.0000
  O2          0.23192      0.65261      0.99774  1.0000
  O2          0.65558      0.40487      0.84122  1.0000
  O2          0.58575      0.24244      0.16576  1.0000
  O1          0.73583      0.32467      0.50928  1.0000
  O2          0.57386      0.33599      0.00366  1.0000
  O2          0.76339      0.41387      0.67934  1.0000
  O3          0.65376      0.21772      0.33048  1.0000
  O1          0.43615      0.68743      0.50199  1.0000
  O2          0.23725      0.58356      0.15955  1.0000
  O2          0.34277      0.74683      0.83627  1.0000
  O2          0.11957      0.20722      0.97469  1.0000
  O3          0.76653      0.89882      0.30083  1.0000
  O2          0.09662      0.86450      0.64795  1.0000
  O1          0.89057      0.81420      0.47379  1.0000
  O2          0.21240      0.07204      0.81352  1.0000
  O2          0.91063      0.12598      0.13568  1.0000
  O1          0.21254      0.14247      0.35491  1.0000
  O2          0.90505      0.78088      0.02664  1.0000
  O2          0.87852      0.08422      0.70193  1.0000
  O2          0.78458      0.86129      0.86569  1.0000
  O1          0.07647      0.19802      0.53402  1.0000
  O2          0.13066      0.91951      0.18563  1.0000
  O3          0.94986      0.88210      0.24347  1.0000
  O3          0.14257      0.06004      0.59615  1.0000
  O2          0.92609      0.05935      0.92024  1.0000
  O2          0.06244      0.11425      0.75925  1.0000
  O2          0.85677      0.92686      0.08182  1.0000
  O1          0.10626      0.96300      0.41847  1.0000
  O2          0.89741      0.19864      0.98046  1.0000
  O1          0.80677      0.68743      0.30575  1.0000
  O2          0.30369      0.09148      0.65774  1.0000
  O1          0.09236      0.77381      0.47728  1.0000
  O2          0.20398      0.28541      0.81893  1.0000
  O2          0.69832      0.90319      0.14412  1.0000
  O3          0.19400      0.89714      0.34381  1.0000
  O2          0.69239      0.79034      0.02082  1.0000
  O3          0.10440      0.28656      0.69980  1.0000
  O2          0.79439      0.08334      0.85766  1.0000
  O1          0.32007      0.24020      0.53265  1.0000
  O2          0.90739      0.70520      0.18307  1.0000
  O2          0.31000      0.64380      0.24112  1.0000
  O3          0.36196      0.65530      0.59358  1.0000
  O2          0.32174      0.66659      0.91780  1.0000
  O2          0.67391      0.34154      0.75963  1.0000
  O2          0.64614      0.32261      0.08389  1.0000
  O1          0.71115      0.34438      0.41526  1.0000
  O2          0.36802      0.32280      0.97433  1.0000
  O2          0.65280      0.02715      0.29900  1.0000
  O2          0.96617      0.61330      0.64706  1.0000
  O1          0.64720      0.71440      0.45660  1.0000
  O2          0.33026      0.94164      0.80958  1.0000
  O2          0.04273      0.37508      0.13346  1.0000
  O1          0.36196      0.39398      0.35256  1.0000
  O2          0.03758      0.66538      0.02685  1.0000
  O2          0.62915      0.95224      0.70181  1.0000
  O2          0.66668      0.61245      0.86753  1.0000
  O1          0.93399      0.29641      0.53810  1.0000
  O2          0.37868      0.04858      0.19144  1.0000
  O2          0.76553      0.29923      0.01112  1.0000
  O1          0.68229      0.45074      0.33569  1.0000
  O2          0.53529      0.22100      0.68693  1.0000
  O1          0.23624      0.70285      0.52242  1.0000
  O2          0.30441      0.51905      0.84723  1.0000
  O2          0.46365      0.77252      0.17148  1.0000
  O2          0.28969      0.76947      0.31328  1.0000
  O2          0.46129      0.68941      0.99024  1.0000
  O3          0.23299      0.53592      0.66594  1.0000
  O2          0.69471      0.21502      0.82919  1.0000
  O1          0.52012      0.29187      0.47745  1.0000
  O2          0.77360      0.47098      0.15414  1.0000
  O2          0.78085      0.53066      0.02805  1.0000
  O1          0.46299      0.23344      0.37785  1.0000
  O2          0.75238      0.20863      0.70383  1.0000
  O1          0.22623      0.45561      0.52724  1.0000
  O2          0.53444      0.73651      0.86419  1.0000
  O2          0.25024      0.79097      0.18723  1.0000
  O2          0.51623      0.77106      0.29818  1.0000
  O2          0.24675      0.45823      0.97358  1.0000
  O2          0.21528      0.73297      0.63265  1.0000
  O2          0.46393      0.19806      0.81422  1.0000
  O1          0.75143      0.54691      0.47792  1.0000
  O2          0.78736      0.25311      0.13707  1.0000
  O2          0.23082      0.31303      0.90196  1.0000
  O2          0.66484      0.89540      0.22705  1.0000
  O3          0.06046      0.74246      0.57264  1.0000
  O1          0.81125      0.68375      0.39417  1.0000
  O2          0.32640      0.08401      0.74059  1.0000
  O2          0.90575      0.23129      0.06313  1.0000
  O1          0.30370      0.27366      0.43795  1.0000
  O2          0.90806      0.67602      0.09962  1.0000
  O2          0.76641      0.07930      0.77484  1.0000
  O2          0.67079      0.75666      0.93809  1.0000
  O1          0.11046      0.30797      0.61107  1.0000
  O2          0.22659      0.91312      0.26045  1.0000
  O2          0.57877      0.55108      0.99361  1.0000
  O2          0.43006      0.02958      0.31647  1.0000
  O3          0.96428      0.39459      0.66300  1.0000
  O1          0.46052      0.48306      0.49317  1.0000
  O2          0.55784      0.95852      0.82897  1.0000
  O2          0.02848      0.58900      0.15328  1.0000
  O1          0.58395      0.63231      0.34212  1.0000
  O2          0.02166      0.43719      0.00734  1.0000
  O2          0.41203      0.96368      0.68453  1.0000
  O2          0.43993      0.39816      0.84793  1.0000
  O1          0.96568      0.53431      0.51230  1.0000
  O2          0.59009      0.02986      0.17417  1.0000
  O2          0.58136      0.16286      0.24673  1.0000
  O3          0.82717      0.41146      0.59586  1.0000
  O2          0.57687      0.40714      0.92190  1.0000
  O2          0.42143      0.82581      0.75543  1.0000
  O2          0.15978      0.58042      0.07918  1.0000
  O1          0.40758      0.59291      0.41352  1.0000
  F           0.44238      0.89932      0.24484  1.0000
  F           0.09060      0.49708      0.58226  1.0000
  F           0.44861      0.53766      0.91915  1.0000
  F           0.54805      0.08433      0.75633  1.0000
  F           0.90167      0.45059      0.08130  1.0000
  F           0.58468      0.49118      0.40888  1.0000
