data_cif

_audit_creation_method             'generated by GULP'

_symmetry_space_group_name_H-M     'P 1'
_symmetry_Int_Tables_number        1
_symmetry_cell_setting             triclinic

_cell_length_a                       12.1012
_cell_length_b                       12.0690
_cell_length_c                       29.9828
_cell_angle_alpha                   90.1692
_cell_angle_beta                    89.5939
_cell_angle_gamma                  120.1352

loop_
_atom_site_label
_atom_site_fract_x
_atom_site_fract_y
_atom_site_fract_z
_atom_site_occupancy
  Ge          0.69960      0.37570      0.03389  1.0000
  Si          0.61887      0.32400      0.36974  1.0000
  Si          0.66948      0.28770      0.69261  1.0000
  Si          0.29132      0.61393      0.53166  1.0000
  Si          0.36359      0.66931      0.85677  1.0000
  Si          0.33839      0.70235      0.20785  1.0000
  Si          0.38477      0.70373      0.30721  1.0000
  Ge          0.30731      0.62600      0.95925  1.0000
  Si          0.28801      0.66747      0.63062  1.0000
  Si          0.60935      0.28837      0.79099  1.0000
  Si          0.67283      0.37704      0.46869  1.0000
  Ge          0.69476      0.31263      0.13575  1.0000
  Ge          0.53145      0.40952      0.96174  1.0000
  Si          0.58032      0.11124      0.30694  1.0000
  Si          0.88368      0.46320      0.63067  1.0000
  Si          0.46932      0.57865      0.46989  1.0000
  Si          0.41160      0.88310      0.79197  1.0000
  Ge          0.13118      0.55776      0.13872  1.0000
  Si          0.41842      0.52782      0.36990  1.0000
  Ge          0.12558      0.61711      0.03454  1.0000
  Si          0.46429      0.88024      0.69223  1.0000
  Si          0.57157      0.45712      0.85690  1.0000
  Si          0.88394      0.41160      0.53061  1.0000
  Si          0.53064      0.10829      0.20696  1.0000
  Si          0.28772      0.38887      0.84156  1.0000
  Si          0.61339      0.90904      0.19451  1.0000
  Si          0.09258      0.69109      0.51763  1.0000
  Si          0.69737      0.60129      0.35568  1.0000
  Si          0.39315      0.08735      0.67777  1.0000
  Ge          0.92356      0.32408      0.01242  1.0000
  Si          0.39667      0.29968      0.48343  1.0000
  Ge          0.89636      0.60036      0.14808  1.0000
  Si          0.68796      0.09118      0.80685  1.0000
  Ge          0.59861      0.70183      0.97331  1.0000
  Si          0.08853      0.39071      0.64472  1.0000
  Si          0.30161      0.89955      0.32009  1.0000
  Ge          0.26313      0.35689      0.94181  1.0000
  Si          0.66350      0.91449      0.29391  1.0000
  Si          0.08314      0.74111      0.61674  1.0000
  Si          0.74645      0.65698      0.45497  1.0000
  Si          0.33218      0.08028      0.77676  1.0000
  Ge          0.92951      0.26730      0.11544  1.0000
  Si          0.33949      0.24985      0.38437  1.0000
  Ge          0.90362      0.67285      0.04872  1.0000
  Si          0.74129      0.08010      0.70798  1.0000
  Si          0.65031      0.73942      0.87062  1.0000
  Si          0.08294      0.33380      0.54551  1.0000
  Si          0.25383      0.90057      0.22046  1.0000
  Ge          0.97686      0.13308      0.95879  1.0000
  Si          0.87841      0.85305      0.30814  1.0000
  Si          0.14462      0.02084      0.63053  1.0000
  Si          0.02658      0.87289      0.46917  1.0000
  Si          0.11610      0.14297      0.79189  1.0000
  Ge          0.86099      0.97689      0.13819  1.0000
  Si          0.12291      0.96955      0.37034  1.0000
  Ge          0.84151      0.89261      0.03040  1.0000
  Si          0.01961      0.14159      0.69362  1.0000
  Ge          0.86675      0.02068      0.85760  1.0000
  Si          0.14689      0.11786      0.53196  1.0000
  Ge          0.97172      0.84565      0.20659  1.0000
  O1          0.92476      0.03737      0.00573  1.0000
  O2          0.99916      0.92841      0.34065  1.0000
  O2          0.06619      0.06312      0.66311  1.0000
  O2          0.06837      0.99458      0.50096  1.0000
  O3          0.00510      0.06900      0.82754  1.0000
  O1          0.95601      0.94912      0.17195  1.0000
  O2          0.34492      0.58007      0.33888  1.0000
  O2          0.41250      0.75317      0.66158  1.0000
  O1          0.24473      0.69121      0.99511  1.0000
  O2          0.64490      0.41134      0.82249  1.0000
  O3          0.57068      0.22407      0.17326  1.0000
  O2          0.75819      0.33797      0.49952  1.0000
  O1          0.58185      0.32835      0.99396  1.0000
  O2          0.75611      0.41134      0.66150  1.0000
  O2          0.65533      0.23759      0.33810  1.0000
  O2          0.41654      0.65294      0.50097  1.0000
  O3          0.25955      0.58849      0.17331  1.0000
  O2          0.33601      0.75618      0.82279  1.0000
  O1          0.13473      0.20704      0.95920  1.0000
  O2          0.78673      0.91452      0.31522  1.0000
  O2          0.08247      0.86740      0.63576  1.0000
  O2          0.87315      0.78266      0.47403  1.0000
  O2          0.20543      0.07878      0.79533  1.0000
  O1          0.93790      0.13923      0.13575  1.0000
  O2          0.21461      0.12314      0.36515  1.0000
  O1          0.90217      0.79464      0.01911  1.0000
  O2          0.86655      0.07934      0.68822  1.0000
  O3          0.76381      0.85935      0.84541  1.0000
  O2          0.08413      0.20812      0.52638  1.0000
  O3          0.13448      0.90153      0.20003  1.0000
  O3          0.93471      0.87495      0.25952  1.0000
  O2          0.13118      0.06397      0.58165  1.0000
  O1          0.90216      0.03908      0.91255  1.0000
  O2          0.05290      0.12573      0.74388  1.0000
  O1          0.84470      0.91028      0.08690  1.0000
  O2          0.07216      0.92856      0.42022  1.0000
  O1          0.92393      0.24084      0.96629  1.0000
  O2          0.79548      0.70038      0.31856  1.0000
  O2          0.29573      0.08844      0.64104  1.0000
  O2          0.09376      0.78999      0.48081  1.0000
  O2          0.20165      0.29544      0.80114  1.0000
  O3          0.70401      0.90728      0.15638  1.0000
  O2          0.20254      0.89961      0.35705  1.0000
  O1          0.68690      0.81536      0.01235  1.0000
  O2          0.08855      0.29227      0.68184  1.0000
  O3          0.78521      0.09980      0.84477  1.0000
  O2          0.29770      0.20064      0.52059  1.0000
  O1          0.88429      0.69233      0.19242  1.0000
  O2          0.33368      0.64496      0.25754  1.0000
  O2          0.34554      0.66865      0.58131  1.0000
  O3          0.29377      0.66098      0.90304  1.0000
  O2          0.66794      0.34490      0.74184  1.0000
  O1          0.63320      0.33538      0.08669  1.0000
  O2          0.67399      0.32222      0.41906  1.0000
  O1          0.36962      0.31613      0.96439  1.0000
  O2          0.66886      0.04513      0.31073  1.0000
  O2          0.95148      0.61854      0.63474  1.0000
  O2          0.62443      0.66605      0.47340  1.0000
  O2          0.32449      0.95078      0.79616  1.0000
  O1          0.03869      0.39457      0.14584  1.0000
  O2          0.33058      0.37229      0.36661  1.0000
  O1          0.06154      0.71313      0.04280  1.0000
  O2          0.61950      0.94831      0.69015  1.0000
  O2          0.64519      0.61159      0.85150  1.0000
  O2          0.95216      0.32458      0.52750  1.0000
  O2          0.37663      0.03214      0.20311  1.0000
  O1          0.76740      0.28529      0.02055  1.0000
  O2          0.69546      0.46702      0.34792  1.0000
  O2          0.52744      0.21981      0.67082  1.0000
  O2          0.22467      0.68950      0.51000  1.0000
  O2          0.30444      0.52946      0.83317  1.0000
  O2          0.48132      0.77523      0.18671  1.0000
  O2          0.30668      0.76916      0.32834  1.0000
  O1          0.46319      0.71075      0.97598  1.0000
  O2          0.22047      0.52489      0.65284  1.0000
  O2          0.68293      0.22196      0.81400  1.0000
  O2          0.53026      0.30122      0.49094  1.0000
  O1          0.77478      0.45362      0.16481  1.0000
  O1          0.78950      0.53706      0.02241  1.0000
  O2          0.46438      0.25074      0.36480  1.0000
  O2          0.74137      0.20483      0.68874  1.0000
  O2          0.20823      0.45901      0.52643  1.0000
  O2          0.51608      0.73467      0.86302  1.0000
  O2          0.25687      0.77574      0.20220  1.0000
  O2          0.53880      0.78780      0.31272  1.0000
  O1          0.22559      0.46318      0.96961  1.0000
  O2          0.20765      0.74190      0.63634  1.0000
  O2          0.45456      0.20794      0.79570  1.0000
  O2          0.74654      0.53207      0.47416  1.0000
  O1          0.77486      0.23211      0.12477  1.0000
  O3          0.20838      0.32307      0.88538  1.0000
  O2          0.68631      0.91345      0.24057  1.0000
  O2          0.08700      0.75967      0.56341  1.0000
  O2          0.76504      0.67378      0.40160  1.0000
  O2          0.31764      0.08016      0.72339  1.0000
  O1          0.97182      0.28003      0.05991  1.0000
  O2          0.32315      0.23125      0.43781  1.0000
  O1          0.87075      0.67906      0.10426  1.0000
  O2          0.75950      0.08400      0.76161  1.0000
  O3          0.68140      0.75504      0.92268  1.0000
  O2          0.08412      0.31731      0.59895  1.0000
  O2          0.23194      0.89768      0.27415  1.0000
  O1          0.58379      0.55767      0.98682  1.0000
  O2          0.43887      0.02589      0.32868  1.0000
  O2          0.96437      0.40462      0.65391  1.0000
  O2          0.41165      0.43836      0.49281  1.0000
  O2          0.55076      0.96324      0.81554  1.0000
  O1          0.05136      0.63353      0.15570  1.0000
  O2          0.55840      0.58459      0.34697  1.0000
  O1          0.01616      0.48486      0.00450  1.0000
  O2          0.41045      0.96504      0.66906  1.0000
  O2          0.42461      0.39526      0.84149  1.0000
  O2          0.96922      0.55237      0.50843  1.0000
  O2          0.60183      0.03533      0.18617  1.0000
  O2          0.58087      0.16357      0.25698  1.0000
  O2          0.83215      0.41150      0.58078  1.0000
  O3          0.58696      0.41934      0.90641  1.0000
  O2          0.41059      0.82948      0.74227  1.0000
  O1          0.18418      0.59319      0.08360  1.0000
  O2          0.41828      0.57930      0.42001  1.0000
  F           0.45762      0.90161      0.25663  1.0000
  F           0.09019      0.54130      0.58213  1.0000
  F           0.41313      0.51307      0.91942  1.0000
  F           0.54035      0.08714      0.74396  1.0000
  F           0.90505      0.48241      0.09052  1.0000
  F           0.54676      0.44997      0.42006  1.0000
