data_cif

_audit_creation_method             'generated by GULP'

_symmetry_space_group_name_H-M     'P 1'
_symmetry_Int_Tables_number        1
_symmetry_cell_setting             triclinic

_cell_length_a                       12.0567
_cell_length_b                       12.0782
_cell_length_c                       29.9811
_cell_angle_alpha                   89.9027
_cell_angle_beta                    90.1174
_cell_angle_gamma                  120.0001

loop_
_atom_site_label
_atom_site_fract_x
_atom_site_fract_y
_atom_site_fract_z
_atom_site_occupancy
  Si          0.69960      0.37570      0.03389  1.0000
  Ge          0.61897      0.31671      0.37874  1.0000
  Si          0.66292      0.28629      0.71160  1.0000
  Si          0.28364      0.62006      0.55051  1.0000
  Si          0.37232      0.66996      0.87424  1.0000
  Si          0.31615      0.68205      0.19994  1.0000
  Ge          0.35918      0.66975      0.30199  1.0000
  Si          0.32008      0.61334      0.97315  1.0000
  Si          0.28250      0.67152      0.64941  1.0000
  Si          0.61030      0.28848      0.81050  1.0000
  Ge          0.67397      0.37292      0.48087  1.0000
  Si          0.69429      0.31692      0.13252  1.0000
  Si          0.52406      0.41353      0.97195  1.0000
  Ge          0.58018      0.11246      0.30669  1.0000
  Si          0.87617      0.46020      0.64947  1.0000
  Ge          0.43487      0.56489      0.48066  1.0000
  Si          0.40861      0.88266      0.81226  1.0000
  Si          0.09984      0.51841      0.13516  1.0000
  Ge          0.38000      0.50335      0.37679  1.0000
  Si          0.10710      0.57487      0.03537  1.0000
  Si          0.45902      0.88181      0.71223  1.0000
  Si          0.57465      0.46549      0.87202  1.0000
  Si          0.87893      0.40577      0.54985  1.0000
  Ge          0.53383      0.10516      0.19976  1.0000
  Si          0.29491      0.39371      0.85925  1.0000
  Si          0.59907      0.88306      0.18451  1.0000
  Si          0.07686      0.68791      0.53549  1.0000
  Ge          0.67305      0.59137      0.35681  1.0000
  Si          0.38551      0.08742      0.69795  1.0000
  Si          0.89835      0.29670      0.02079  1.0000
  Ge          0.38238      0.28146      0.49323  1.0000
  Si          0.89443      0.59171      0.14907  1.0000
  Si          0.68769      0.08977      0.82539  1.0000
  Si          0.59731      0.69152      0.98682  1.0000
  Si          0.08687      0.39361      0.66385  1.0000
  Ge          0.28631      0.88772      0.31683  1.0000
  Si          0.24609      0.33442      0.95837  1.0000
  Ge          0.63027      0.89513      0.28483  1.0000
  Si          0.07182      0.73948      0.63457  1.0000
  Ge          0.72460      0.65261      0.45998  1.0000
  Si          0.33044      0.08185      0.79726  1.0000
  Si          0.89903      0.24153      0.12001  1.0000
  Ge          0.32371      0.22498      0.39137  1.0000
  Si          0.90817      0.65448      0.05007  1.0000
  Si          0.73714      0.08085      0.72629  1.0000
  Si          0.65268      0.74250      0.88755  1.0000
  Si          0.08660      0.33777      0.56489  1.0000
  Si          0.24724      0.90005      0.21405  1.0000
  Si          0.96686      0.11610      0.97250  1.0000
  Ge          0.85769      0.83689      0.30282  1.0000
  Si          0.13553      0.01822      0.64902  1.0000
  Ge          0.01388      0.87460      0.48207  1.0000
  Si          0.11375      0.14488      0.81090  1.0000
  Si          0.84456      0.96342      0.13443  1.0000
  Ge          0.09872      0.94318      0.37454  1.0000
  Si          0.84732      0.87147      0.03558  1.0000
  Si          0.01732      0.14399      0.71216  1.0000
  Si          0.86919      0.02200      0.87380  1.0000
  Si          0.13950      0.11271      0.54964  1.0000
  Ge          0.96640      0.84009      0.20072  1.0000
  O2          0.92571      0.99505      0.00458  1.0000
  O1          0.95592      0.88785      0.34930  1.0000
  O2          0.05813      0.06355      0.68051  1.0000
  O3          0.04643      0.99899      0.51760  1.0000
  O2          0.99166      0.06577      0.84247  1.0000
  O3          0.92639      0.93464      0.16938  1.0000
  O1          0.29968      0.54261      0.33789  1.0000
  O2          0.40607      0.75586      0.68103  1.0000
  O2          0.23448      0.65073      0.00495  1.0000
  O2          0.64924      0.41400      0.84095  1.0000
  O3          0.57359      0.23227      0.16357  1.0000
  O3          0.75950      0.33045      0.51763  1.0000
  O2          0.57682      0.33817      0.00231  1.0000
  O2          0.74899      0.40942      0.68016  1.0000
  O1          0.66465      0.23991      0.34084  1.0000
  O3          0.39810      0.65649      0.51632  1.0000
  O2          0.22656      0.56781      0.16604  1.0000
  O2          0.33380      0.75648      0.84355  1.0000
  O2          0.12027      0.20764      0.97747  1.0000
  O1          0.77841      0.91550      0.30367  1.0000
  O2          0.07167      0.86466      0.65463  1.0000
  O1          0.85245      0.79159      0.48073  1.0000
  O2          0.20494      0.08290      0.81660  1.0000
  O2          0.89865      0.11565      0.13875  1.0000
  O1          0.20093      0.10080      0.36263  1.0000
  O2          0.90962      0.78051      0.03007  1.0000
  O2          0.86374      0.08187      0.70714  1.0000
  O2          0.77813      0.86891      0.86825  1.0000
  O2          0.09083      0.21588      0.54550  1.0000
  O3          0.12577      0.89119      0.18925  1.0000
  O1          0.94951      0.85913      0.25564  1.0000
  O2          0.12147      0.05625      0.59942  1.0000
  O2          0.92367      0.06064      0.92340  1.0000
  O2          0.05908      0.13036      0.76150  1.0000
  O2          0.86452      0.92295      0.08564  1.0000
  O1          0.08049      0.93194      0.43128  1.0000
  O2          0.89843      0.19838      0.98396  1.0000
  O1          0.75750      0.67534      0.31088  1.0000
  O2          0.28657      0.08632      0.66085  1.0000
  O3          0.07831      0.77988      0.49716  1.0000
  O2          0.19565      0.29572      0.82229  1.0000
  O2          0.69252      0.88414      0.14481  1.0000
  O1          0.17250      0.86218      0.35609  1.0000
  O2          0.69637      0.78979      0.02397  1.0000
  O2          0.08667      0.29491      0.70095  1.0000
  O2          0.78694      0.09071      0.86254  1.0000
  O3          0.28455      0.17583      0.53555  1.0000
  O3          0.88370      0.67962      0.18699  1.0000
  O3          0.32707      0.62051      0.24580  1.0000
  O2          0.34108      0.67608      0.59997  1.0000
  O2          0.31793      0.66993      0.92401  1.0000
  O2          0.66490      0.34378      0.76091  1.0000
  O2          0.64050      0.31817      0.08283  1.0000
  O1          0.65504      0.28964      0.43190  1.0000
  O2          0.36890      0.32558      0.97613  1.0000
  O1          0.67372      0.04362      0.30687  1.0000
  O2          0.94155      0.61531      0.65222  1.0000
  O1          0.59707      0.63856      0.48939  1.0000
  O2          0.32140      0.95080      0.81557  1.0000
  O2          0.02927      0.36329      0.13944  1.0000
  O1          0.28480      0.34337      0.38613  1.0000
  O2          0.03965      0.66267      0.03285  1.0000
  O2          0.61443      0.94911      0.70870  1.0000
  O2          0.66162      0.62078      0.86913  1.0000
  O2          0.95490      0.32638      0.54623  1.0000
  O3          0.36953      0.01731      0.19199  1.0000
  O2          0.76742      0.30051      0.01252  1.0000
  O1          0.71166      0.47346      0.36359  1.0000
  O2          0.51973      0.21947      0.68992  1.0000
  O2          0.21044      0.68878      0.52850  1.0000
  O2          0.29623      0.52764      0.85225  1.0000
  O2          0.45534      0.76327      0.17593  1.0000
  O1          0.27350      0.74083      0.31772  1.0000
  O2          0.46297      0.68904      0.99514  1.0000
  O2          0.21759      0.52909      0.67143  1.0000
  O2          0.68630      0.22221      0.83286  1.0000
  O1          0.53168      0.31458      0.50947  1.0000
  O2          0.76256      0.45737      0.15560  1.0000
  O2          0.78358      0.53049      0.03026  1.0000
  O1          0.45891      0.24793      0.36464  1.0000
  O2          0.73607      0.20460      0.70652  1.0000
  O2          0.21104      0.46429      0.54617  1.0000
  O2          0.52715      0.74249      0.86884  1.0000
  O2          0.25127      0.76885      0.20822  1.0000
  O1          0.52124      0.75473      0.31284  1.0000
  O2          0.24567      0.45840      0.97830  1.0000
  O2          0.19861      0.74246      0.65380  1.0000
  O2          0.45543      0.20720      0.81630  1.0000
  O1          0.76004      0.53488      0.47258  1.0000
  O2          0.77188      0.23849      0.13875  1.0000
  O2          0.22712      0.31942      0.90501  1.0000
  O3          0.66178      0.86729      0.22894  1.0000
  O2          0.07105      0.75808      0.58112  1.0000
  O1          0.72138      0.68506      0.40422  1.0000
  O2          0.31331      0.08350      0.74388  1.0000
  O2          0.90045      0.22672      0.06657  1.0000
  O1          0.32184      0.18558      0.44671  1.0000
  O2          0.90386      0.67008      0.10362  1.0000
  O2          0.75608      0.08413      0.77972  1.0000
  O2          0.66985      0.76044      0.94100  1.0000
  O2          0.08592      0.32143      0.61843  1.0000
  O3          0.23782      0.92252      0.26633  1.0000
  O2          0.58284      0.55294      0.99548  1.0000
  O1          0.43173      0.01322      0.33153  1.0000
  O2          0.96170      0.40642      0.67270  1.0000
  O1          0.35505      0.40749      0.49588  1.0000
  O2          0.54923      0.96608      0.83488  1.0000
  O2          0.02121      0.58034      0.15819  1.0000
  O1          0.51359      0.53048      0.34693  1.0000
  O2          0.02248      0.43539      0.01252  1.0000
  O2          0.40150      0.96440      0.68939  1.0000
  O2          0.43385      0.40974      0.84976  1.0000
  O2          0.95284      0.54820      0.52772  1.0000
  O3          0.60329      0.01780      0.18230  1.0000
  O1          0.57051      0.16317      0.25279  1.0000
  O2          0.82512      0.40434      0.59982  1.0000
  O2          0.57502      0.41350      0.92196  1.0000
  O2          0.40800      0.83035      0.76234  1.0000
  O2          0.15550      0.57097      0.08565  1.0000
  O1          0.40313      0.58686      0.42580  1.0000
  F           0.47736      0.89575      0.26061  1.0000
  F           0.08485      0.54209      0.59942  1.0000
  F           0.44542      0.54198      0.92385  1.0000
  F           0.53736      0.08879      0.76203  1.0000
  F           0.89671      0.44411      0.08653  1.0000
  F           0.52551      0.42765      0.43115  1.0000
