data_cif

_audit_creation_method             'generated by GULP'

_symmetry_space_group_name_H-M     'P 1'
_symmetry_Int_Tables_number        1
_symmetry_cell_setting             triclinic

_cell_length_a                       12.0987
_cell_length_b                       12.0798
_cell_length_c                       29.8818
_cell_angle_alpha                   88.6311
_cell_angle_beta                    90.6677
_cell_angle_gamma                  120.4817

loop_
_atom_site_label
_atom_site_fract_x
_atom_site_fract_y
_atom_site_fract_z
_atom_site_occupancy
  Si          0.69960      0.37570      0.03389  1.0000
  Si          0.61157      0.29986      0.35943  1.0000
  Ge          0.67207      0.30778      0.70478  1.0000
  Ge          0.31196      0.61027      0.52441  1.0000
  Si          0.37560      0.67323      0.86766  1.0000
  Si          0.32063      0.69641      0.19496  1.0000
  Si          0.37300      0.68738      0.29428  1.0000
  Si          0.31673      0.61924      0.96727  1.0000
  Ge          0.32431      0.67224      0.62525  1.0000
  Ge          0.61779      0.31025      0.80489  1.0000
  Si          0.66366      0.34853      0.45858  1.0000
  Si          0.70404      0.31747      0.13306  1.0000
  Si          0.52303      0.41755      0.97311  1.0000
  Si          0.57734      0.09248      0.29680  1.0000
  Ge          0.88361      0.44905      0.63408  1.0000
  Si          0.47255      0.56318      0.45653  1.0000
  Si          0.41355      0.88088      0.79931  1.0000
  Si          0.11077      0.52636      0.13070  1.0000
  Si          0.41533      0.51134      0.35629  1.0000
  Si          0.10561      0.58084      0.03014  1.0000
  Ge          0.47037      0.88431      0.69659  1.0000
  Si          0.57923      0.47524      0.87315  1.0000
  Ge          0.87366      0.40451      0.52829  1.0000
  Si          0.52854      0.10234      0.19641  1.0000
  Si          0.29987      0.39485      0.85559  1.0000
  Si          0.59919      0.89665      0.18199  1.0000
  Ge          0.10675      0.69224      0.51102  1.0000
  Si          0.69266      0.57788      0.34271  1.0000
  Ge          0.39634      0.10640      0.68192  1.0000
  Si          0.89770      0.30063      0.01772  1.0000
  Si          0.38854      0.27919      0.47247  1.0000
  Si          0.90390      0.59601      0.14547  1.0000
  Ge          0.70582      0.10467      0.81476  1.0000
  Si          0.59320      0.69683      0.98449  1.0000
  Ge          0.11349      0.38744      0.64345  1.0000
  Si          0.29608      0.88496      0.30980  1.0000
  Si          0.24626      0.33966      0.95553  1.0000
  Si          0.65503      0.89473      0.28144  1.0000
  Ge          0.10453      0.73691      0.61248  1.0000
  Si          0.74738      0.63041      0.44176  1.0000
  Si          0.33327      0.08655      0.78514  1.0000
  Si          0.91034      0.24716      0.11717  1.0000
  Si          0.33357      0.23170      0.37289  1.0000
  Si          0.90658      0.65677      0.04593  1.0000
  Ge          0.76106      0.10817      0.71148  1.0000
  Si          0.65491      0.75164      0.88532  1.0000
  Ge          0.08631      0.32533      0.54009  1.0000
  Si          0.24920      0.90201      0.21016  1.0000
  Si          0.96632      0.12203      0.97044  1.0000
  Si          0.87159      0.83091      0.29394  1.0000
  Ge          0.13946      0.01334      0.63012  1.0000
  Si          0.02486      0.85637      0.45594  1.0000
  Si          0.11891      0.14415      0.80618  1.0000
  Si          0.84763      0.96646      0.13248  1.0000
  Si          0.11679      0.95435      0.35697  1.0000
  Si          0.84221      0.87332      0.03356  1.0000
  Ge          0.03864      0.14153      0.70148  1.0000
  Si          0.87975      0.03019      0.87098  1.0000
  Ge          0.13297      0.09602      0.52258  1.0000
  Si          0.97046      0.84151      0.19505  1.0000
  O2          0.92306      0.99988      0.00306  1.0000
  O2          0.99553      0.91069      0.32468  1.0000
  O1          0.05922      0.03424      0.67312  1.0000
  O3          0.04669      0.96227      0.49128  1.0000
  O2          0.00362      0.06531      0.84125  1.0000
  O2          0.92958      0.92450      0.16366  1.0000
  O2          0.33731      0.56092      0.32511  1.0000
  O1          0.44633      0.76285      0.66293  1.0000
  O2          0.23033      0.65664      0.99758  1.0000
  O3          0.65584      0.42965      0.84331  1.0000
  O2          0.58175      0.23157      0.16542  1.0000
  O3          0.74116      0.31282      0.49393  1.0000
  O2          0.57203      0.33959      0.00449  1.0000
  O1          0.77132      0.43858      0.66957  1.0000
  O2          0.65074      0.21592      0.32869  1.0000
  O3          0.43642      0.64609      0.48658  1.0000
  O2          0.23696      0.57662      0.16206  1.0000
  O2          0.33965      0.75831      0.83383  1.0000
  O2          0.11970      0.21435      0.97593  1.0000
  O2          0.77977      0.89103      0.30039  1.0000
  O1          0.09530      0.85779      0.63842  1.0000
  O2          0.87331      0.75348      0.46097  1.0000
  O2          0.20624      0.07749      0.80720  1.0000
  O2          0.91175      0.12056      0.13623  1.0000
  O2          0.20934      0.10822      0.35135  1.0000
  O2          0.90318      0.78239      0.02684  1.0000
  O1          0.88577      0.10223      0.68795  1.0000
  O2          0.78095      0.87731      0.86525  1.0000
  O1          0.06982      0.19147      0.51410  1.0000
  O2          0.12433      0.90515      0.19091  1.0000
  O2          0.92444      0.84867      0.24408  1.0000
  O1          0.10650      0.04922      0.57813  1.0000
  O2          0.92873      0.06669      0.92131  1.0000
  O3          0.05531      0.13012      0.75872  1.0000
  O2          0.85627      0.92205      0.08347  1.0000
  O2          0.06161      0.91998      0.40666  1.0000
  O2          0.89685      0.20343      0.98058  1.0000
  O2          0.79120      0.67851      0.30514  1.0000
  O1          0.30060      0.10927      0.63998  1.0000
  O3          0.10737      0.79173      0.46703  1.0000
  O2          0.20519      0.29559      0.81809  1.0000
  O2          0.69754      0.89851      0.14498  1.0000
  O2          0.19738      0.88380      0.34674  1.0000
  O2          0.69076      0.79370      0.02191  1.0000
  O1          0.13565      0.29646      0.68457  1.0000
  O3          0.80558      0.10196      0.85703  1.0000
  O3          0.29604      0.18231      0.51106  1.0000
  O2          0.90341      0.69183      0.18255  1.0000
  O2          0.31704      0.63454      0.24446  1.0000
  O1          0.38704      0.69746      0.57180  1.0000
  O2          0.31583      0.67227      0.91646  1.0000
  O1          0.69222      0.38507      0.75574  1.0000
  O2          0.64524      0.31679      0.08365  1.0000
  O2          0.66559      0.29394      0.40928  1.0000
  O2          0.36710      0.32978      0.97473  1.0000
  O2          0.66464      0.02480      0.30006  1.0000
  O1          0.95508      0.60993      0.61820  1.0000
  O2          0.62823      0.64110      0.45997  1.0000
  O2          0.34664      0.96759      0.80514  1.0000
  O2          0.04288      0.37043      0.13403  1.0000
  O2          0.32706      0.35548      0.35425  1.0000
  O2          0.03752      0.66786      0.02690  1.0000
  O1          0.63268      0.95773      0.70458  1.0000
  O2          0.66416      0.63099      0.86787  1.0000
  O1          0.97010      0.34358      0.51481  1.0000
  O2          0.37319      0.03505      0.19267  1.0000
  O2          0.76453      0.30135      0.01055  1.0000
  O2          0.68847      0.44283      0.33606  1.0000
  O1          0.52571      0.25732      0.67868  1.0000
  O1          0.22608      0.66604      0.49477  1.0000
  O2          0.30450      0.53067      0.84573  1.0000
  O2          0.46425      0.76513      0.17360  1.0000
  O2          0.29638      0.75112      0.31681  1.0000
  O2          0.45925      0.69587      0.98955  1.0000
  O1          0.26709      0.51628      0.64215  1.0000
  O1          0.68171      0.22555      0.83010  1.0000
  O2          0.52069      0.27829      0.48023  1.0000
  O2          0.77228      0.46040      0.15401  1.0000
  O2          0.78035      0.53140      0.02741  1.0000
  O2          0.45657      0.22760      0.35464  1.0000
  O1          0.75951      0.23470      0.68560  1.0000
  O1          0.23974      0.44657      0.52949  1.0000
  O2          0.53133      0.75359      0.86489  1.0000
  O2          0.24787      0.77836      0.19012  1.0000
  O2          0.52816      0.76836      0.30011  1.0000
  O2          0.24553      0.46427      0.97334  1.0000
  O1          0.22960      0.73521      0.63970  1.0000
  O3          0.45164      0.22028      0.79982  1.0000
  O2          0.74760      0.50498      0.46178  1.0000
  O2          0.78671      0.24557      0.13767  1.0000
  O2          0.22826      0.32329      0.90189  1.0000
  O2          0.67201      0.89792      0.22786  1.0000
  O1          0.14433      0.78756      0.55718  1.0000
  O2          0.76491      0.64931      0.38804  1.0000
  O3          0.31064      0.07599      0.73216  1.0000
  O2          0.90413      0.23010      0.06359  1.0000
  O2          0.31217      0.20999      0.42665  1.0000
  O2          0.90734      0.67110      0.09947  1.0000
  O1          0.79723      0.13719      0.76814  1.0000
  O2          0.66979      0.76802      0.93890  1.0000
  O1          0.06599      0.29234      0.59692  1.0000
  O2          0.22923      0.89405      0.26370  1.0000
  O2          0.57589      0.55722      0.99507  1.0000
  O2          0.43623      0.00685      0.31922  1.0000
  O1          0.00197      0.42618      0.65882  1.0000
  O2          0.40501      0.41908      0.47924  1.0000
  O3          0.56219      0.96051      0.81223  1.0000
  O2          0.02813      0.58177      0.15361  1.0000
  O2          0.55512      0.56566      0.33344  1.0000
  O2          0.02142      0.44066      0.00780  1.0000
  O1          0.42989      0.98756      0.67066  1.0000
  O2          0.43887      0.40944      0.84878  1.0000
  O1          0.95309      0.56427      0.51400  1.0000
  O2          0.58576      0.02163      0.17322  1.0000
  O2          0.57958      0.14953      0.24678  1.0000
  O1          0.82827      0.36913      0.58350  1.0000
  O2          0.57865      0.42204      0.92361  1.0000
  O3          0.39360      0.83226      0.74888  1.0000
  O2          0.16040      0.58054      0.08009  1.0000
  O2          0.42027      0.56408      0.40601  1.0000
  F           0.44761      0.89019      0.24557  1.0000
  F           0.13081      0.55500      0.57556  1.0000
  F           0.44817      0.54831      0.91867  1.0000
  F           0.58010      0.14351      0.74280  1.0000
  F           0.90053      0.44795      0.08083  1.0000
  F           0.54413      0.42641      0.40773  1.0000
