data_cif

_audit_creation_method             'generated by GULP'

_symmetry_space_group_name_H-M     'P 1'
_symmetry_Int_Tables_number        1
_symmetry_cell_setting             triclinic

_cell_length_a                       12.0154
_cell_length_b                       12.0719
_cell_length_c                       30.0393
_cell_angle_alpha                   90.3404
_cell_angle_beta                    89.0269
_cell_angle_gamma                  119.6847

loop_
_atom_site_label
_atom_site_fract_x
_atom_site_fract_y
_atom_site_fract_z
_atom_site_occupancy
  Si          0.69960      0.37570      0.03389  1.0000
  Ge          0.64741      0.32104      0.38318  1.0000
  Si          0.69189      0.29371      0.70700  1.0000
  Si          0.30227      0.60989      0.54023  1.0000
  Si          0.39159      0.66554      0.86246  1.0000
  Ge          0.29444      0.67847      0.19678  1.0000
  Ge          0.34891      0.66229      0.30048  1.0000
  Si          0.32694      0.61421      0.96103  1.0000
  Si          0.31482      0.67368      0.63868  1.0000
  Si          0.62733      0.28252      0.80569  1.0000
  Si          0.69169      0.37088      0.48253  1.0000
  Ge          0.70418      0.33117      0.13634  1.0000
  Si          0.53143      0.41329      0.96780  1.0000
  Ge          0.57887      0.10619      0.31657  1.0000
  Si          0.90876      0.47423      0.64715  1.0000
  Si          0.47150      0.57057      0.47194  1.0000
  Si          0.42931      0.87688      0.79997  1.0000
  Ge          0.09159      0.52035      0.12340  1.0000
  Ge          0.42695      0.51815      0.36875  1.0000
  Si          0.11865      0.58118      0.02545  1.0000
  Si          0.48952      0.88612      0.70005  1.0000
  Si          0.59175      0.45973      0.86814  1.0000
  Si          0.89982      0.41648      0.54768  1.0000
  Ge          0.54326      0.12355      0.21145  1.0000
  Si          0.31394      0.38795      0.85219  1.0000
  Ge          0.59339      0.89083      0.18979  1.0000
  Si          0.10419      0.69231      0.52910  1.0000
  Ge          0.72558      0.59227      0.35876  1.0000
  Si          0.41869      0.09497      0.68974  1.0000
  Si          0.90411      0.29653      0.01707  1.0000
  Si          0.40487      0.28533      0.48823  1.0000
  Si          0.91282      0.61946      0.14917  1.0000
  Si          0.70544      0.08247      0.81638  1.0000
  Si          0.60198      0.69155      0.97864  1.0000
  Si          0.11579      0.39972      0.65751  1.0000
  Ge          0.28651      0.87520      0.32685  1.0000
  Si          0.25393      0.33376      0.95117  1.0000
  Ge          0.64095      0.88487      0.29290  1.0000
  Si          0.10758      0.74894      0.62833  1.0000
  Si          0.75828      0.65179      0.46192  1.0000
  Si          0.35046      0.07685      0.78844  1.0000
  Si          0.90916      0.24297      0.11773  1.0000
  Ge          0.35877      0.23037      0.38653  1.0000
  Si          0.91668      0.66041      0.04678  1.0000
  Si          0.76462      0.08576      0.71743  1.0000
  Si          0.67009      0.73781      0.87986  1.0000
  Si          0.09726      0.33390      0.55886  1.0000
  Ge          0.26398      0.90913      0.22745  1.0000
  Si          0.97247      0.11648      0.96611  1.0000
  Ge          0.88282      0.84767      0.30709  1.0000
  Si          0.17201      0.02938      0.64216  1.0000
  Si          0.02865      0.86994      0.48206  1.0000
  Si          0.13299      0.14033      0.80382  1.0000
  Ge          0.84337      0.95684      0.13136  1.0000
  Ge          0.11247      0.95064      0.37923  1.0000
  Si          0.84754      0.86991      0.02808  1.0000
  Si          0.04638      0.15086      0.70529  1.0000
  Si          0.88564      0.01764      0.86704  1.0000
  Si          0.15733      0.11544      0.54352  1.0000
  Ge          0.98691      0.86758      0.20225  1.0000
  O2          0.93093      0.99399      0.99707  1.0000
  O1          0.99461      0.93648      0.34556  1.0000
  O2          0.09300      0.07242      0.67450  1.0000
  O2          0.06994      0.98769      0.51608  1.0000
  O2          0.01197      0.06236      0.83664  1.0000
  O1          0.95219      0.94792      0.16306  1.0000
  O1          0.32640      0.53720      0.33428  1.0000
  O2          0.44175      0.76281      0.66764  1.0000
  O2          0.23400      0.65239      0.98886  1.0000
  O2          0.66609      0.40353      0.83829  1.0000
  O1          0.59087      0.25531      0.17653  1.0000
  O2          0.76891      0.34138      0.51997  1.0000
  O2          0.58258      0.34188      0.00049  1.0000
  O2          0.78269      0.42362      0.67911  1.0000
  O1          0.68135      0.21727      0.35279  1.0000
  O2          0.42067      0.64096      0.50608  1.0000
  O1          0.22422      0.56533      0.15807  1.0000
  O2          0.35401      0.74778      0.82968  1.0000
  O2          0.12593      0.20939      0.97054  1.0000
  O1          0.76150      0.87771      0.31975  1.0000
  O2          0.11056      0.87655      0.64747  1.0000
  O2          0.87490      0.77326      0.48673  1.0000
  O2          0.22131      0.07416      0.80727  1.0000
  O3          0.89851      0.11718      0.13667  1.0000
  O1          0.22462      0.10408      0.36685  1.0000
  O2          0.90835      0.77638      0.02293  1.0000
  O2          0.89403      0.09033      0.69805  1.0000
  O2          0.79909      0.86411      0.86201  1.0000
  O2          0.09270      0.20521      0.54005  1.0000
  O1          0.14344      0.93250      0.20286  1.0000
  O1          0.92488      0.88269      0.25281  1.0000
  O2          0.15873      0.07104      0.59326  1.0000
  O2          0.93273      0.06360      0.91664  1.0000
  O2          0.07770      0.13213      0.75522  1.0000
  O3          0.85688      0.91713      0.07714  1.0000
  O3          0.06233      0.93233      0.43451  1.0000
  O2          0.90231      0.19755      0.97949  1.0000
  O1          0.83180      0.69071      0.31890  1.0000
  O2          0.32303      0.09814      0.65271  1.0000
  O2          0.10044      0.78851      0.49211  1.0000
  O2          0.21832      0.28977      0.81533  1.0000
  O1          0.68885      0.87624      0.14819  1.0000
  O1          0.17866      0.85743      0.36984  1.0000
  O2          0.69731      0.79152      0.01519  1.0000
  O2          0.11762      0.30226      0.69445  1.0000
  O2          0.80090      0.08160      0.85373  1.0000
  O2          0.30436      0.19725      0.52703  1.0000
  O3          0.89970      0.70813      0.18593  1.0000
  O1          0.31989      0.61612      0.24622  1.0000
  O2          0.36601      0.67072      0.58816  1.0000
  O2          0.33308      0.66952      0.91129  1.0000
  O2          0.68593      0.34332      0.75693  1.0000
  O3          0.64413      0.32550      0.08276  1.0000
  O3          0.70089      0.30802      0.43696  1.0000
  O2          0.37563      0.32649      0.97100  1.0000
  O1          0.66791      0.03496      0.29956  1.0000
  O2          0.97740      0.62928      0.64867  1.0000
  O2          0.62618      0.64761      0.47691  1.0000
  O2          0.34056      0.94387      0.80456  1.0000
  O3          0.03914      0.35754      0.13531  1.0000
  O1          0.33911      0.35582      0.37298  1.0000
  O2          0.04497      0.66496      0.02683  1.0000
  O2          0.64557      0.95614      0.69768  1.0000
  O2          0.68077      0.61432      0.86387  1.0000
  O2          0.96634      0.32766      0.54231  1.0000
  O1          0.38381      0.03939      0.19992  1.0000
  O2          0.77186      0.30129      0.01427  1.0000
  O1          0.74422      0.46189      0.35392  1.0000
  O2          0.55214      0.22857      0.68360  1.0000
  O2          0.23387      0.68486      0.51879  1.0000
  O2          0.31691      0.52143      0.84258  1.0000
  O1          0.44314      0.78676      0.17351  1.0000
  O1          0.25416      0.71995      0.32134  1.0000
  O2          0.46624      0.68927      0.98486  1.0000
  O2          0.25034      0.53280      0.66177  1.0000
  O2          0.70114      0.21253      0.82613  1.0000
  O2          0.54418      0.30565      0.50120  1.0000
  O3          0.78036      0.48654      0.15448  1.0000
  O2          0.79243      0.52833      0.03319  1.0000
  O1          0.48611      0.22443      0.36363  1.0000
  O2          0.76629      0.21291      0.70010  1.0000
  O2          0.22246      0.45503      0.53744  1.0000
  O2          0.54709      0.73619      0.85829  1.0000
  O1          0.21140      0.75620      0.20888  1.0000
  O1          0.50338      0.76695      0.31688  1.0000
  O2          0.25171      0.45987      0.96800  1.0000
  O2          0.23358      0.74763      0.64532  1.0000
  O2          0.47190      0.19944      0.80979  1.0000
  O2          0.75661      0.52471      0.47881  1.0000
  O3          0.78400      0.24631      0.13610  1.0000
  O2          0.24168      0.31575      0.89789  1.0000
  O1          0.64010      0.84710      0.23720  1.0000
  O2          0.10571      0.76387      0.57499  1.0000
  O3          0.78374      0.67365      0.40961  1.0000
  O2          0.33993      0.08534      0.73521  1.0000
  O2          0.91017      0.23320      0.06311  1.0000
  O3          0.35138      0.20366      0.44455  1.0000
  O2          0.92128      0.68455      0.09979  1.0000
  O2          0.77861      0.08230      0.77070  1.0000
  O2          0.67912      0.75794      0.93302  1.0000
  O2          0.10355      0.32178      0.61212  1.0000
  O1          0.22450      0.91831      0.28305  1.0000
  O2          0.58812      0.55410      0.98951  1.0000
  O1          0.43791      0.98773      0.34158  1.0000
  O2          0.99544      0.42018      0.66887  1.0000
  O2          0.41082      0.42191      0.48547  1.0000
  O2          0.56714      0.95707      0.82378  1.0000
  O3          0.03737      0.60877      0.15698  1.0000
  O1          0.57725      0.57310      0.34571  1.0000
  O2          0.02373      0.43651      0.00748  1.0000
  O2          0.43473      0.97246      0.67870  1.0000
  O2          0.45364      0.40241      0.84453  1.0000
  O2          0.97834      0.55422      0.52295  1.0000
  O1          0.62383      0.04536      0.19403  1.0000
  O1          0.56225      0.16987      0.26659  1.0000
  O2          0.85317      0.41915      0.59827  1.0000
  O2          0.58772      0.40979      0.91861  1.0000
  O2          0.43361      0.83000      0.74949  1.0000
  O3          0.17942      0.58554      0.07224  1.0000
  O3          0.43712      0.58437      0.42206  1.0000
  F           0.41645      0.89282      0.25600  1.0000
  F           0.11118      0.54510      0.59242  1.0000
  F           0.45891      0.53902      0.91597  1.0000
  F           0.56074      0.08799      0.75296  1.0000
  F           0.93945      0.46482      0.09082  1.0000
  F           0.57270      0.41739      0.41264  1.0000
