data_cif

_audit_creation_method             'generated by GULP'

_symmetry_space_group_name_H-M     'P 1'
_symmetry_Int_Tables_number        1
_symmetry_cell_setting             triclinic

_cell_length_a                       12.0511
_cell_length_b                       12.0649
_cell_length_c                       30.0093
_cell_angle_alpha                   90.3726
_cell_angle_beta                    89.5197
_cell_angle_gamma                  119.9846

loop_
_atom_site_label
_atom_site_fract_x
_atom_site_fract_y
_atom_site_fract_z
_atom_site_occupancy
  Si          0.69960      0.37570      0.03389  1.0000
  Si          0.59940      0.32305      0.35632  1.0000
  Ge          0.67089      0.30300      0.70065  1.0000
  Ge          0.29058      0.61385      0.53031  1.0000
  Si          0.36169      0.66527      0.87648  1.0000
  Si          0.30644      0.69859      0.19973  1.0000
  Si          0.36432      0.70901      0.29843  1.0000
  Si          0.31522      0.61105      0.97569  1.0000
  Ge          0.27781      0.67380      0.63126  1.0000
  Ge          0.61401      0.30368      0.80379  1.0000
  Si          0.64708      0.36273      0.45585  1.0000
  Si          0.68822      0.31705      0.13264  1.0000
  Si          0.52843      0.41683      0.97112  1.0000
  Si          0.56419      0.11180      0.29408  1.0000
  Ge          0.85366      0.47489      0.62555  1.0000
  Si          0.45925      0.57757      0.46081  1.0000
  Ge          0.41145      0.87705      0.81076  1.0000
  Si          0.09496      0.52088      0.13797  1.0000
  Si          0.40538      0.53735      0.36107  1.0000
  Si          0.10274      0.57478      0.03815  1.0000
  Ge          0.45618      0.86210      0.70541  1.0000
  Si          0.57386      0.47590      0.87157  1.0000
  Ge          0.85763      0.41529      0.52192  1.0000
  Si          0.51034      0.10475      0.19433  1.0000
  Si          0.29112      0.39051      0.86007  1.0000
  Si          0.58241      0.89685      0.18282  1.0000
  Ge          0.08895      0.69752      0.51038  1.0000
  Si          0.68372      0.60269      0.34686  1.0000
  Ge          0.38283      0.07948      0.68748  1.0000
  Si          0.89879      0.29652      0.02173  1.0000
  Si          0.37190      0.29376      0.47079  1.0000
  Si          0.88654      0.59293      0.14944  1.0000
  Ge          0.70427      0.10248      0.82264  1.0000
  Si          0.59485      0.69446      0.98629  1.0000
  Ge          0.05796      0.38938      0.64936  1.0000
  Si          0.28508      0.90811      0.31095  1.0000
  Si          0.24802      0.33363      0.95940  1.0000
  Si          0.64369      0.91279      0.28163  1.0000
  Ge          0.06980      0.75534      0.61053  1.0000
  Si          0.73619      0.64812      0.44637  1.0000
  Si          0.32519      0.07736      0.78916  1.0000
  Si          0.89634      0.24399      0.12098  1.0000
  Si          0.32206      0.25703      0.37116  1.0000
  Si          0.90367      0.65439      0.05053  1.0000
  Ge          0.72839      0.08240      0.72122  1.0000
  Si          0.64640      0.75214      0.88716  1.0000
  Ge          0.05930      0.32787      0.54669  1.0000
  Si          0.23341      0.90616      0.21162  1.0000
  Si          0.97060      0.11602      0.97352  1.0000
  Si          0.86088      0.85068      0.29652  1.0000
  Ge          0.14438      0.04287      0.63044  1.0000
  Ge          0.01994      0.87782      0.45932  1.0000
  Si          0.11262      0.14466      0.80813  1.0000
  Si          0.83237      0.96405      0.13490  1.0000
  Si          0.10573      0.98202      0.35888  1.0000
  Si          0.84265      0.87222      0.03628  1.0000
  Ge          0.01516      0.15357      0.70665  1.0000
  Si          0.87674      0.02978      0.87461  1.0000
  Si          0.12993      0.11823      0.52675  1.0000
  Si          0.95337      0.84201      0.19775  1.0000
  O2          0.92597      0.99495      0.00549  1.0000
  O2          0.98207      0.93293      0.32775  1.0000
  O1          0.10011      0.11472      0.66986  1.0000
  O3          0.04697      0.98523      0.50214  1.0000
  O2          0.99282      0.05982      0.84066  1.0000
  O2          0.91066      0.92121      0.16651  1.0000
  O2          0.32942      0.58954      0.33129  1.0000
  O1          0.39571      0.73214      0.67117  1.0000
  O2          0.23205      0.64981      0.00820  1.0000
  O3          0.64878      0.43316      0.83805  1.0000
  O2          0.56072      0.22902      0.16230  1.0000
  O3          0.72731      0.32211      0.48702  1.0000
  O2          0.58010      0.34042      0.00088  1.0000
  O1          0.72641      0.42270      0.66202  1.0000
  O2          0.63952      0.24087      0.32381  1.0000
  O3          0.42111      0.65303      0.49553  1.0000
  O2          0.21893      0.57140      0.16999  1.0000
  O3          0.32140      0.74851      0.84659  1.0000
  O2          0.12396      0.20674      0.97938  1.0000
  O2          0.76991      0.91354      0.30069  1.0000
  O1          0.05572      0.88155      0.63274  1.0000
  O3          0.85715      0.77000      0.46681  1.0000
  O2          0.20418      0.08253      0.81083  1.0000
  O2          0.89353      0.11717      0.14046  1.0000
  O2          0.19669      0.13422      0.34994  1.0000
  O2          0.90526      0.78121      0.03156  1.0000
  O1          0.85818      0.06877      0.69827  1.0000
  O2          0.77025      0.87903      0.86759  1.0000
  O3          0.05822      0.19791      0.52086  1.0000
  O2          0.10658      0.90331      0.19204  1.0000
  O2          0.91406      0.85788      0.24719  1.0000
  O3          0.14189      0.10486      0.57925  1.0000
  O2          0.93399      0.05951      0.92411  1.0000
  O3          0.06615      0.13773      0.75889  1.0000
  O2          0.85006      0.92485      0.08561  1.0000
  O3          0.05434      0.95552      0.40879  1.0000
  O2          0.90201      0.19923      0.98450  1.0000
  O2          0.78096      0.70165      0.30980  1.0000
  O1          0.29885      0.08274      0.64252  1.0000
  O1          0.10127      0.80075      0.46680  1.0000
  O2          0.19263      0.29400      0.82297  1.0000
  O2          0.68066      0.89431      0.14574  1.0000
  O2          0.18791      0.91131      0.34841  1.0000
  O2          0.69317      0.79169      0.02331  1.0000
  O1          0.06349      0.31172      0.69592  1.0000
  O3          0.81015      0.11120      0.86453  1.0000
  O2          0.27576      0.19464      0.50753  1.0000
  O2          0.88351      0.69076      0.18639  1.0000
  O2          0.30706      0.64693      0.24972  1.0000
  O1          0.34543      0.70306      0.57848  1.0000
  O2          0.30792      0.66335      0.92658  1.0000
  O1          0.69664      0.36249      0.75480  1.0000
  O2          0.63707      0.31810      0.08259  1.0000
  O2          0.64892      0.31213      0.40554  1.0000
  O2          0.37321      0.32706      0.97488  1.0000
  O2          0.65294      0.04555      0.29827  1.0000
  O1          0.91457      0.63571      0.61971  1.0000
  O2          0.61375      0.65654      0.46454  1.0000
  O3          0.34033      0.97186      0.81612  1.0000
  O2          0.02611      0.36540      0.14027  1.0000
  O2          0.31592      0.38261      0.35612  1.0000
  O2          0.03650      0.66346      0.03372  1.0000
  O1          0.61845      0.92628      0.70676  1.0000
  O2          0.65584      0.63129      0.86769  1.0000
  O1          0.94908      0.34316      0.51592  1.0000
  O2          0.35471      0.03583      0.19204  1.0000
  O2          0.76767      0.29966      0.01253  1.0000
  O2          0.67816      0.46782      0.33663  1.0000
  O1          0.50928      0.23038      0.69060  1.0000
  O1          0.20892      0.66698      0.49817  1.0000
  O2          0.29139      0.52397      0.85311  1.0000
  O2          0.44832      0.76345      0.17677  1.0000
  O2          0.28797      0.77679      0.31976  1.0000
  O2          0.45957      0.68892      0.99574  1.0000
  O1          0.21035      0.51423      0.64258  1.0000
  O1          0.67577      0.22540      0.83328  1.0000
  O2          0.50428      0.29229      0.47801  1.0000
  O2          0.75296      0.45883      0.15534  1.0000
  O2          0.78089      0.53077      0.02963  1.0000
  O2          0.44524      0.25531      0.35055  1.0000
  O1          0.74155      0.21093      0.69040  1.0000
  O1          0.21253      0.45330      0.54074  1.0000
  O2          0.51786      0.74843      0.86964  1.0000
  O2          0.23258      0.77933      0.19372  1.0000
  O2          0.51944      0.79042      0.30249  1.0000
  O2          0.24720      0.45667      0.98036  1.0000
  O1          0.18595      0.74538      0.64080  1.0000
  O3          0.45102      0.21533      0.79441  1.0000
  O2          0.73002      0.51792      0.46320  1.0000
  O2          0.76956      0.24385      0.13874  1.0000
  O2          0.22486      0.31781      0.90622  1.0000
  O2          0.65794      0.90602      0.22828  1.0000
  O1          0.10981      0.79637      0.55562  1.0000
  O2          0.75692      0.66898      0.39275  1.0000
  O3          0.29484      0.03881      0.73745  1.0000
  O2          0.89901      0.22678      0.06758  1.0000
  O2          0.30143      0.22921      0.42418  1.0000
  O2          0.89631      0.66831      0.10383  1.0000
  O1          0.79074      0.11704      0.77532  1.0000
  O2          0.66426      0.76738      0.94058  1.0000
  O1          0.01480      0.29430      0.60176  1.0000
  O2          0.21587      0.90874      0.26501  1.0000
  O2          0.58364      0.55689      0.99382  1.0000
  O2          0.42495      0.03169      0.31824  1.0000
  O1          0.95378      0.44453      0.65784  1.0000
  O2          0.38638      0.43214      0.48081  1.0000
  O1          0.56608      0.95745      0.82852  1.0000
  O2          0.00861      0.57630      0.15973  1.0000
  O2          0.54712      0.59429      0.33930  1.0000
  O2          0.02335      0.43565      0.01412  1.0000
  O1          0.42211      0.96496      0.67624  1.0000
  O2          0.43034      0.40605      0.85003  1.0000
  O1          0.93691      0.57016      0.50393  1.0000
  O2          0.56639      0.01918      0.17236  1.0000
  O2          0.56344      0.16007      0.24379  1.0000
  O1          0.79861      0.39485      0.57580  1.0000
  O2          0.57998      0.42159      0.92057  1.0000
  O1          0.38841      0.81487      0.75791  1.0000
  O2          0.15079      0.57409      0.08842  1.0000
  O2          0.40653      0.58597      0.41175  1.0000
  F           0.43464      0.90205      0.24677  1.0000
  F           0.07036      0.56457      0.57528  1.0000
  F           0.44424      0.54420      0.92173  1.0000
  F           0.57287      0.08513      0.75161  1.0000
  F           0.89249      0.44548      0.08493  1.0000
  F           0.52908      0.44796      0.40928  1.0000
