data_cif

_audit_creation_method             'generated by GULP'

_symmetry_space_group_name_H-M     'P 1'
_symmetry_Int_Tables_number        1
_symmetry_cell_setting             triclinic

_cell_length_a                       12.1413
_cell_length_b                       12.0201
_cell_length_c                       29.9269
_cell_angle_alpha                   91.3445
_cell_angle_beta                    88.8230
_cell_angle_gamma                  120.3897

loop_
_atom_site_label
_atom_site_fract_x
_atom_site_fract_y
_atom_site_fract_z
_atom_site_occupancy
  Ge          0.69960      0.37570      0.03389  1.0000
  Si          0.61540      0.30463      0.37075  1.0000
  Si          0.66314      0.27371      0.69534  1.0000
  Si          0.29387      0.59850      0.53699  1.0000
  Si          0.36566      0.67040      0.86485  1.0000
  Ge          0.34466      0.69265      0.21293  1.0000
  Si          0.37815      0.67323      0.31093  1.0000
  Ge          0.31180      0.62623      0.96780  1.0000
  Si          0.28182      0.65293      0.63606  1.0000
  Si          0.60840      0.28452      0.79431  1.0000
  Si          0.67567      0.35602      0.46970  1.0000
  Ge          0.68147      0.31012      0.13563  1.0000
  Ge          0.53013      0.40414      0.96361  1.0000
  Si          0.57482      0.09248      0.30402  1.0000
  Si          0.87616      0.44416      0.63198  1.0000
  Si          0.47571      0.56283      0.47673  1.0000
  Si          0.40875      0.87962      0.79907  1.0000
  Ge          0.12330      0.56815      0.14854  1.0000
  Si          0.42007      0.51122      0.37686  1.0000
  Ge          0.13026      0.62543      0.04274  1.0000
  Si          0.45667      0.86717      0.69891  1.0000
  Si          0.57094      0.45901      0.85927  1.0000
  Si          0.88550      0.39171      0.53161  1.0000
  Si          0.52353      0.09006      0.20265  1.0000
  Si          0.28612      0.38736      0.84657  1.0000
  Ge          0.61441      0.88479      0.18825  1.0000
  Si          0.09578      0.67275      0.52043  1.0000
  Si          0.69681      0.58460      0.35869  1.0000
  Si          0.38524      0.07312      0.68359  1.0000
  Ge          0.92922      0.32950      0.01697  1.0000
  Si          0.40131      0.28136      0.48753  1.0000
  Ge          0.88052      0.59734      0.14571  1.0000
  Si          0.68768      0.08846      0.81069  1.0000
  Ge          0.60115      0.69799      0.98251  1.0000
  Si          0.08090      0.37404      0.64764  1.0000
  Si          0.29079      0.87313      0.31701  1.0000
  Ge          0.26366      0.35385      0.94715  1.0000
  Si          0.66074      0.89226      0.29207  1.0000
  Si          0.07750      0.72387      0.61952  1.0000
  Si          0.75058      0.63847      0.45833  1.0000
  Si          0.32793      0.07570      0.78307  1.0000
  Ge          0.92180      0.27219      0.12027  1.0000
  Si          0.33840      0.23101      0.38858  1.0000
  Ge          0.90418      0.67711      0.04810  1.0000
  Si          0.73525      0.06767      0.71134  1.0000
  Si          0.65204      0.74241      0.87908  1.0000
  Si          0.08428      0.31644      0.54828  1.0000
  Si          0.23955      0.87806      0.21546  1.0000
  Ge          0.97555      0.13820      0.95867  1.0000
  Si          0.87624      0.83714      0.31078  1.0000
  Si          0.13913      0.00480      0.63432  1.0000
  Si          0.03220      0.85319      0.47178  1.0000
  Si          0.11040      0.13813      0.79613  1.0000
  Ge          0.88226      0.98975      0.13827  1.0000
  Si          0.11911      0.95034      0.37223  1.0000
  Ge          0.85163      0.89919      0.03200  1.0000
  Si          0.01324      0.12747      0.69734  1.0000
  Si          0.86439      0.02105      0.85976  1.0000
  Si          0.15106      0.10112      0.53537  1.0000
  Ge          0.96563      0.84320      0.20696  1.0000
  O1          0.89452      0.02876      0.00003  1.0000
  O2          0.99164      0.91339      0.34583  1.0000
  O2          0.05736      0.04688      0.66585  1.0000
  O2          0.07492      0.97727      0.50347  1.0000
  O2          0.98865      0.06181      0.82850  1.0000
  O1          0.96328      0.96406      0.17825  1.0000
  O2          0.34600      0.56598      0.34855  1.0000
  O2          0.40264      0.73692      0.66861  1.0000
  O1          0.25365      0.69578      0.00427  1.0000
  O2          0.64456      0.41318      0.82404  1.0000
  O3          0.55810      0.21028      0.17224  1.0000
  O2          0.76220      0.31728      0.49917  1.0000
  O1          0.58456      0.32316      0.99301  1.0000
  O2          0.74778      0.39361      0.66243  1.0000
  O2          0.64781      0.21750      0.33658  1.0000
  O2          0.42377      0.63801      0.50860  1.0000
  O1          0.23698      0.56464      0.18005  1.0000
  O2          0.33681      0.75667      0.83158  1.0000
  O1          0.13175      0.20324      0.96393  1.0000
  O2          0.78195      0.89635      0.31607  1.0000
  O2          0.07474      0.85030      0.63863  1.0000
  O2          0.87896      0.76342      0.47740  1.0000
  O2          0.20152      0.07653      0.80192  1.0000
  O1          0.93380      0.14985      0.14352  1.0000
  O2          0.21207      0.10488      0.36912  1.0000
  O1          0.90895      0.79968      0.01718  1.0000
  O2          0.85995      0.06339      0.69256  1.0000
  O2          0.76717      0.86627      0.85393  1.0000
  O2          0.08893      0.19128      0.52896  1.0000
  O3          0.12820      0.89824      0.20004  1.0000
  O3          0.94038      0.86105      0.26354  1.0000
  O2          0.13211      0.04866      0.58510  1.0000
  O3          0.90836      0.05250      0.90960  1.0000
  O2          0.05543      0.11865      0.74674  1.0000
  O1          0.90722      0.95508      0.08470  1.0000
  O2          0.07692      0.90439      0.42237  1.0000
  O1          0.93489      0.25441      0.96845  1.0000
  O2          0.79271      0.68357      0.32128  1.0000
  O2          0.28833      0.07199      0.64680  1.0000
  O2          0.09944      0.77094      0.48327  1.0000
  O2          0.19497      0.29138      0.80663  1.0000
  O1          0.72001      0.89923      0.14762  1.0000
  O2          0.19457      0.87989      0.35378  1.0000
  O1          0.68941      0.80097      0.02504  1.0000
  O2          0.07979      0.27783      0.68513  1.0000
  O2          0.78763      0.09426      0.84730  1.0000
  O2          0.30280      0.18334      0.52494  1.0000
  O1          0.86420      0.69676      0.18888  1.0000
  O3          0.32556      0.60591      0.26388  1.0000
  O2          0.34330      0.65490      0.58707  1.0000
  O3          0.29882      0.66294      0.91193  1.0000
  O2          0.66607      0.33632      0.74458  1.0000
  O1          0.62580      0.33465      0.08578  1.0000
  O2          0.67406      0.30164      0.41903  1.0000
  O1          0.36814      0.30963      0.96766  1.0000
  O2          0.65779      0.02167      0.30685  1.0000
  O2          0.94418      0.60055      0.63606  1.0000
  O2          0.63105      0.64963      0.47868  1.0000
  O2          0.32155      0.94751      0.80293  1.0000
  O1          0.01104      0.40326      0.15202  1.0000
  O2          0.33128      0.35494      0.37203  1.0000
  O1          0.06331      0.72025      0.04708  1.0000
  O2          0.61136      0.93340      0.69515  1.0000
  O2          0.64761      0.61563      0.85715  1.0000
  O2          0.95467      0.30533      0.52886  1.0000
  O2          0.37000      0.01136      0.20321  1.0000
  O1          0.77180      0.28757      0.02345  1.0000
  O2          0.69122      0.44795      0.34921  1.0000
  O2          0.51976      0.20503      0.67501  1.0000
  O2          0.22893      0.67266      0.51388  1.0000
  O2          0.30284      0.52913      0.84045  1.0000
  O1          0.48328      0.73782      0.18016  1.0000
  O2          0.30322      0.74872      0.32783  1.0000
  O1          0.46762      0.70894      0.98501  1.0000
  O2          0.21171      0.50916      0.65701  1.0000
  O2          0.68342      0.22079      0.81783  1.0000
  O2          0.53368      0.28005      0.49260  1.0000
  O1          0.75229      0.45373      0.16443  1.0000
  O1          0.79357      0.53723      0.02143  1.0000
  O2          0.46067      0.22847      0.36751  1.0000
  O2          0.73412      0.18976      0.69057  1.0000
  O2          0.21177      0.44253      0.53051  1.0000
  O2          0.51855      0.73674      0.87042  1.0000
  O3          0.24334      0.75861      0.19368  1.0000
  O2          0.53289      0.76827      0.31035  1.0000
  O1          0.22913      0.46196      0.97658  1.0000
  O2          0.19998      0.72597      0.64062  1.0000
  O2          0.45355      0.20469      0.80060  1.0000
  O2          0.74942      0.51189      0.47589  1.0000
  O1          0.76345      0.23144      0.12442  1.0000
  O3          0.20960      0.31933      0.89054  1.0000
  O3          0.68679      0.89153      0.23964  1.0000
  O2          0.08689      0.74279      0.56611  1.0000
  O2          0.76674      0.65567      0.40486  1.0000
  O2          0.31176      0.07074      0.72959  1.0000
  O1          0.97044      0.28219      0.06487  1.0000
  O2          0.32412      0.21310      0.44209  1.0000
  O1          0.86224      0.68542      0.10273  1.0000
  O2          0.75538      0.07943      0.76473  1.0000
  O3          0.68183      0.75449      0.93100  1.0000
  O2          0.08008      0.29957      0.60179  1.0000
  O2          0.22296      0.85690      0.26999  1.0000
  O1          0.58247      0.54999      0.99191  1.0000
  O2          0.42971      0.00126      0.32121  1.0000
  O2          0.95577      0.38669      0.65562  1.0000
  O2          0.42048      0.42204      0.49872  1.0000
  O2          0.54975      0.96309      0.82090  1.0000
  O1          0.03371      0.63937      0.16096  1.0000
  O2          0.55834      0.56998      0.35221  1.0000
  O1          0.02251      0.49158      0.01176  1.0000
  O2          0.40080      0.94868      0.67547  1.0000
  O2          0.42496      0.39896      0.84309  1.0000
  O2          0.97260      0.53313      0.51005  1.0000
  O3          0.58889      0.01383      0.18136  1.0000
  O2          0.57771      0.13769      0.25348  1.0000
  O2          0.82909      0.39114      0.58144  1.0000
  O3          0.58302      0.41533      0.90782  1.0000
  O2          0.40504      0.82045      0.74945  1.0000
  O1          0.17974      0.60288      0.09271  1.0000
  O2          0.42220      0.56238      0.42752  1.0000
  F           0.43452      0.84477      0.24528  1.0000
  F           0.08768      0.52370      0.58432  1.0000
  F           0.41436      0.51022      0.92498  1.0000
  F           0.53583      0.07976      0.74816  1.0000
  F           0.89393      0.49154      0.09420  1.0000
  F           0.54777      0.43026      0.42284  1.0000
