data_cif

_audit_creation_method             'generated by GULP'

_symmetry_space_group_name_H-M     'P 1'
_symmetry_Int_Tables_number        1
_symmetry_cell_setting             triclinic

_cell_length_a                       12.0574
_cell_length_b                       12.0672
_cell_length_c                       29.9108
_cell_angle_alpha                   90.9954
_cell_angle_beta                    89.9216
_cell_angle_gamma                  119.9326

loop_
_atom_site_label
_atom_site_fract_x
_atom_site_fract_y
_atom_site_fract_z
_atom_site_occupancy
  Si          0.69960      0.37570      0.03389  1.0000
  Ge          0.63394      0.32900      0.36586  1.0000
  Si          0.66320      0.27998      0.71116  1.0000
  Ge          0.30568      0.60726      0.53575  1.0000
  Si          0.37440      0.65580      0.86773  1.0000
  Si          0.32579      0.71510      0.19200  1.0000
  Si          0.37670      0.71026      0.29125  1.0000
  Si          0.31739      0.61116      0.96683  1.0000
  Si          0.29991      0.66225      0.63836  1.0000
  Si          0.60827      0.27200      0.81054  1.0000
  Ge          0.69760      0.38606      0.47010  1.0000
  Si          0.71000      0.33085      0.13303  1.0000
  Si          0.52080      0.40880      0.97262  1.0000
  Si          0.59152      0.11804      0.29584  1.0000
  Ge          0.86728      0.44008      0.64314  1.0000
  Ge          0.48817      0.60199      0.46356  1.0000
  Si          0.41260      0.86516      0.80467  1.0000
  Si          0.11414      0.53524      0.12891  1.0000
  Ge          0.42900      0.56189      0.36214  1.0000
  Si          0.10577      0.57790      0.02866  1.0000
  Si          0.46861      0.87563      0.70454  1.0000
  Si          0.57355      0.45142      0.87251  1.0000
  Ge          0.88518      0.39366      0.54239  1.0000
  Si          0.53808      0.12215      0.19599  1.0000
  Si          0.29512      0.37719      0.85587  1.0000
  Si          0.60452      0.91159      0.17967  1.0000
  Ge          0.08344      0.67309      0.51660  1.0000
  Ge          0.71752      0.62205      0.35067  1.0000
  Si          0.38857      0.07716      0.69449  1.0000
  Si          0.89779      0.29775      0.01713  1.0000
  Ge          0.40968      0.32197      0.48761  1.0000
  Si          0.90931      0.60918      0.14474  1.0000
  Si          0.68990      0.07504      0.82035  1.0000
  Si          0.59327      0.68910      0.98395  1.0000
  Ge          0.09588      0.37712      0.65519  1.0000
  Si          0.31038      0.91783      0.30814  1.0000
  Si          0.24381      0.33003      0.95541  1.0000
  Si          0.65882      0.91013      0.27886  1.0000
  Ge          0.07604      0.72722      0.62023  1.0000
  Ge          0.76979      0.68055      0.45576  1.0000
  Si          0.33048      0.06291      0.79381  1.0000
  Si          0.91505      0.25641      0.11646  1.0000
  Ge          0.34714      0.27392      0.38457  1.0000
  Si          0.90692      0.65666      0.04525  1.0000
  Si          0.74587      0.07878      0.72086  1.0000
  Si          0.65351      0.73029      0.88469  1.0000
  Ge          0.08562      0.31180      0.55019  1.0000
  Si          0.25878      0.92621      0.20918  1.0000
  Si          0.96442      0.11390      0.96889  1.0000
  Si          0.88567      0.85910      0.29375  1.0000
  Si          0.14332      0.00880      0.64274  1.0000
  Ge          0.05922      0.88174      0.46476  1.0000
  Si          0.11370      0.12462      0.80688  1.0000
  Si          0.85271      0.97758      0.13082  1.0000
  Ge          0.12913      0.98871      0.35967  1.0000
  Si          0.84357      0.87288      0.03193  1.0000
  Si          0.02622      0.13354      0.70761  1.0000
  Si          0.87055      0.00846      0.86995  1.0000
  Ge          0.17843      0.11250      0.54046  1.0000
  Si          0.97936      0.86136      0.19407  1.0000
  O2          0.92162      0.99334      0.00040  1.0000
  O3          0.99964      0.95296      0.32598  1.0000
  O2          0.05928      0.05265      0.67217  1.0000
  O1          0.15865      0.99852      0.50182  1.0000
  O2          0.99129      0.04789      0.83811  1.0000
  O2          0.93358      0.93803      0.16279  1.0000
  O3          0.33949      0.59349      0.32330  1.0000
  O2          0.42114      0.75371      0.67080  1.0000
  O2          0.22959      0.65117      0.99665  1.0000
  O2          0.64790      0.39505      0.84309  1.0000
  O2          0.58995      0.24891      0.16583  1.0000
  O1          0.75346      0.31916      0.50530  1.0000
  O2          0.57140      0.33541      0.00446  1.0000
  O3          0.74431      0.40237      0.68164  1.0000
  O3          0.66957      0.23807      0.32877  1.0000
  O1          0.43192      0.67463      0.50198  1.0000
  O2          0.24298      0.59212      0.15934  1.0000
  O2          0.33754      0.73769      0.83442  1.0000
  O2          0.11740      0.20650      0.97490  1.0000
  O2          0.78039      0.90484      0.29845  1.0000
  O3          0.08292      0.85932      0.64789  1.0000
  O1          0.90099      0.81343      0.47857  1.0000
  O2          0.20330      0.06102      0.81325  1.0000
  O2          0.91647      0.13144      0.13539  1.0000
  O1          0.21896      0.14861      0.35681  1.0000
  O2          0.90405      0.78024      0.02576  1.0000
  O2          0.87384      0.08327      0.70136  1.0000
  O2          0.78050      0.85460      0.86578  1.0000
  O1          0.08386      0.17692      0.52917  1.0000
  O2          0.13325      0.92670      0.18932  1.0000
  O2          0.93936      0.87418      0.24381  1.0000
  O3          0.13895      0.04232      0.59189  1.0000
  O2          0.92618      0.05671      0.91922  1.0000
  O2          0.05992      0.10761      0.75683  1.0000
  O2          0.86242      0.93031      0.08159  1.0000
  O1          0.07836      0.94470      0.41300  1.0000
  O2          0.89441      0.19562      0.98003  1.0000
  O3          0.82509      0.71523      0.30900  1.0000
  O2          0.29366      0.08104      0.65715  1.0000
  O1          0.09413      0.76176      0.47022  1.0000
  O2          0.19704      0.27602      0.81854  1.0000
  O2          0.70242      0.91099      0.14242  1.0000
  O3          0.21529      0.91335      0.34630  1.0000
  O2          0.69184      0.79132      0.02100  1.0000
  O3          0.10489      0.28142      0.69710  1.0000
  O2          0.78775      0.07499      0.85750  1.0000
  O1          0.33162      0.23362      0.53434  1.0000
  O2          0.91247      0.71052      0.18192  1.0000
  O2          0.32111      0.65653      0.24106  1.0000
  O3          0.34853      0.62986      0.59284  1.0000
  O2          0.31779      0.66222      0.91667  1.0000
  O2          0.66157      0.33133      0.76168  1.0000
  O2          0.64842      0.32477      0.08398  1.0000
  O1          0.72288      0.36387      0.41389  1.0000
  O2          0.36537      0.32242      0.97503  1.0000
  O2          0.67052      0.04150      0.29890  1.0000
  O1          0.95336      0.60465      0.64782  1.0000
  O1          0.64949      0.71320      0.46568  1.0000
  O2          0.32296      0.93078      0.80897  1.0000
  O2          0.04797      0.38052      0.13332  1.0000
  O1          0.35677      0.39883      0.35536  1.0000
  O2          0.03672      0.66437      0.02610  1.0000
  O2          0.62413      0.94818      0.70083  1.0000
  O2          0.66209      0.60598      0.86793  1.0000
  O1          0.93482      0.28130      0.53828  1.0000
  O2          0.38277      0.05706      0.19263  1.0000
  O2          0.76420      0.29808      0.01094  1.0000
  O1          0.67838      0.46844      0.33783  1.0000
  O2          0.52142      0.20941      0.68803  1.0000
  O1          0.23186      0.69421      0.52372  1.0000
  O2          0.29820      0.51094      0.84663  1.0000
  O2          0.46904      0.78148      0.17103  1.0000
  O2          0.30936      0.78456      0.31421  1.0000
  O2          0.45929      0.68890      0.98985  1.0000
  O3          0.21655      0.53240      0.66545  1.0000
  O2          0.68567      0.20522      0.83059  1.0000
  O1          0.53399      0.29690      0.47880  1.0000
  O2          0.77850      0.47574      0.15411  1.0000
  O2          0.78026      0.52979      0.02737  1.0000
  O1          0.47432      0.24902      0.37663  1.0000
  O2          0.74338      0.20398      0.70403  1.0000
  O1          0.20194      0.44591      0.52437  1.0000
  O2          0.52947      0.72878      0.86371  1.0000
  O2          0.25586      0.80009      0.18856  1.0000
  O2          0.53263      0.78474      0.29609  1.0000
  O2          0.24360      0.45698      0.97309  1.0000
  O3          0.22103      0.73384      0.62882  1.0000
  O2          0.45364      0.18661      0.81532  1.0000
  O1          0.74861      0.54608      0.48199  1.0000
  O2          0.79250      0.25826      0.13739  1.0000
  O2          0.22608      0.30854      0.90184  1.0000
  O2          0.67651      0.91240      0.22528  1.0000
  O1          0.04788      0.73481      0.56485  1.0000
  O1          0.80434      0.67788      0.39949  1.0000
  O2          0.31456      0.06983      0.74052  1.0000
  O2          0.90766      0.23357      0.06295  1.0000
  O1          0.30952      0.26580      0.44012  1.0000
  O2          0.90931      0.67792      0.09878  1.0000
  O2          0.76146      0.07588      0.77442  1.0000
  O2          0.66814      0.75306      0.93820  1.0000
  O1          0.11903      0.31469      0.60672  1.0000
  O2          0.23947      0.92535      0.26280  1.0000
  O2          0.57684      0.55102      0.99460  1.0000
  O2          0.44893      0.04376      0.31769  1.0000
  O1          0.95191      0.36800      0.66090  1.0000
  O1          0.43864      0.47214      0.49965  1.0000
  O2          0.55257      0.94899      0.82792  1.0000
  O2          0.03392      0.59508      0.15259  1.0000
  O1          0.58798      0.64234      0.34716  1.0000
  O2          0.01997      0.43564      0.00674  1.0000
  O2          0.40268      0.95280      0.68390  1.0000
  O2          0.43417      0.39153      0.84832  1.0000
  O1          0.95978      0.52382      0.50549  1.0000
  O2          0.59222      0.03708      0.17208  1.0000
  O2          0.59341      0.17323      0.24625  1.0000
  O1          0.80113      0.38923      0.59106  1.0000
  O2          0.57341      0.40481      0.92302  1.0000
  O2          0.41632      0.81732      0.75379  1.0000
  O2          0.16184      0.58190      0.07841  1.0000
  O1          0.40752      0.60441      0.41516  1.0000
  F           0.45580      0.91535      0.24472  1.0000
  F           0.04361      0.49856      0.58152  1.0000
  F           0.44483      0.53403      0.91968  1.0000
  F           0.53994      0.07572      0.75690  1.0000
  F           0.90359      0.45282      0.08126  1.0000
  F           0.54351      0.49390      0.42196  1.0000
