data_cif

_audit_creation_method             'generated by GULP'

_symmetry_space_group_name_H-M     'P 1'
_symmetry_Int_Tables_number        1
_symmetry_cell_setting             triclinic

_cell_length_a                       12.0909
_cell_length_b                       12.0313
_cell_length_c                       30.1318
_cell_angle_alpha                   89.3096
_cell_angle_beta                    89.6003
_cell_angle_gamma                  119.9720

loop_
_atom_site_label
_atom_site_fract_x
_atom_site_fract_y
_atom_site_fract_z
_atom_site_occupancy
  Si          0.69960      0.37570      0.03389  1.0000
  Si          0.61165      0.32541      0.36034  1.0000
  Si          0.66260      0.29419      0.68544  1.0000
  Si          0.27851      0.61318      0.51812  1.0000
  Ge          0.37448      0.66529      0.86183  1.0000
  Si          0.32781      0.71715      0.19742  1.0000
  Si          0.37606      0.70877      0.29578  1.0000
  Ge          0.31457      0.59714      0.96399  1.0000
  Si          0.28275      0.66299      0.61702  1.0000
  Ge          0.61176      0.29813      0.78712  1.0000
  Si          0.66003      0.37734      0.45879  1.0000
  Si          0.70680      0.33333      0.13536  1.0000
  Ge          0.53689      0.39691      0.96185  1.0000
  Si          0.57717      0.11605      0.29806  1.0000
  Si          0.87929      0.46484      0.62044  1.0000
  Si          0.45665      0.57902      0.45670  1.0000
  Ge          0.38250      0.85731      0.78801  1.0000
  Si          0.11921      0.54611      0.13506  1.0000
  Si          0.41107      0.53007      0.35731  1.0000
  Si          0.12718      0.59795      0.03313  1.0000
  Ge          0.44349      0.87056      0.68341  1.0000
  Ge          0.59101      0.46334      0.86096  1.0000
  Si          0.87106      0.41432      0.52098  1.0000
  Si          0.53041      0.11923      0.19857  1.0000
  Ge          0.30317      0.38081      0.84174  1.0000
  Si          0.60563      0.91524      0.18380  1.0000
  Si          0.08095      0.69356      0.50699  1.0000
  Si          0.69024      0.60324      0.34456  1.0000
  Ge          0.37611      0.09549      0.66995  1.0000
  Si          0.91726      0.31214      0.02051  1.0000
  Si          0.38259      0.29864      0.47206  1.0000
  Si          0.90530      0.61421      0.15174  1.0000
  Ge          0.67482      0.07436      0.80390  1.0000
  Ge          0.60072      0.67907      0.98447  1.0000
  Si          0.08073      0.38573      0.63188  1.0000
  Si          0.29755      0.90718      0.31060  1.0000
  Ge          0.25245      0.31496      0.94348  1.0000
  Si          0.65624      0.91700      0.28277  1.0000
  Si          0.08059      0.74404      0.60584  1.0000
  Si          0.73433      0.65813      0.44320  1.0000
  Ge          0.33019      0.07605      0.77126  1.0000
  Si          0.92151      0.26410      0.12095  1.0000
  Si          0.33187      0.25156      0.37327  1.0000
  Ge          0.91206      0.64118      0.05357  1.0000
  Si          0.72877      0.07218      0.70222  1.0000
  Ge          0.66375      0.74532      0.88217  1.0000
  Si          0.06955      0.33356      0.53306  1.0000
  Si          0.25199      0.92138      0.21191  1.0000
  Ge          0.96640      0.11634      0.96611  1.0000
  Si          0.87313      0.85557      0.29663  1.0000
  Si          0.12999      0.02274      0.61831  1.0000
  Si          0.01285      0.87435      0.45722  1.0000
  Ge          0.11256      0.14677      0.78478  1.0000
  Si          0.85511      0.98374      0.13418  1.0000
  Si          0.11480      0.97259      0.35896  1.0000
  Ge          0.84502      0.86587      0.03684  1.0000
  Si          0.00953      0.13798      0.68349  1.0000
  Ge          0.87527      0.03702      0.86128  1.0000
  Si          0.12977      0.11600      0.51961  1.0000
  Si          0.97315      0.85924      0.19899  1.0000
  O1          0.88981      0.97207      0.99168  1.0000
  O2          0.99426      0.93286      0.32775  1.0000
  O2          0.04064      0.05170      0.65052  1.0000
  O2          0.05352      0.99695      0.48745  1.0000
  O1          0.97899      0.09301      0.81754  1.0000
  O2          0.93011      0.93326      0.16475  1.0000
  O2          0.33671      0.58174      0.32609  1.0000
  O3          0.40371      0.74338      0.64732  1.0000
  O3          0.24791      0.65855      0.00109  1.0000
  O1          0.67198      0.42511      0.82168  1.0000
  O2          0.58461      0.24706      0.16726  1.0000
  O2          0.74427      0.33984      0.49097  1.0000
  O3          0.58165      0.31673      0.00147  1.0000
  O2          0.75647      0.41380      0.65323  1.0000
  O2          0.65073      0.23996      0.32950  1.0000
  O2          0.40248      0.65324      0.48655  1.0000
  O2          0.24357      0.59506      0.16598  1.0000
  O1          0.31478      0.72977      0.82449  1.0000
  O1          0.12618      0.18565      0.97142  1.0000
  O2          0.78049      0.91585      0.30255  1.0000
  O2          0.08323      0.87051      0.62538  1.0000
  O2          0.85951      0.78353      0.46217  1.0000
  O1          0.19182      0.06887      0.79483  1.0000
  O2          0.91773      0.13779      0.14209  1.0000
  O2          0.20725      0.12628      0.35397  1.0000
  O1          0.92241      0.78500      0.03230  1.0000
  O2          0.85740      0.08504      0.68040  1.0000
  O1          0.80570      0.87410      0.86369  1.0000
  O2          0.06875      0.20810      0.51321  1.0000
  O2          0.12689      0.92328      0.19332  1.0000
  O2          0.93028      0.87771      0.24729  1.0000
  O2          0.10771      0.05581      0.56856  1.0000
  O1          0.94312      0.10913      0.90952  1.0000
  O3          0.05087      0.12549      0.73152  1.0000
  O3          0.87229      0.95836      0.08402  1.0000
  O2          0.05747      0.92818      0.40786  1.0000
  O3          0.90902      0.21626      0.98369  1.0000
  O2          0.79125      0.70326      0.30764  1.0000
  O3          0.27752      0.10357      0.62876  1.0000
  O2          0.08121      0.79306      0.47010  1.0000
  O1          0.21242      0.30542      0.79622  1.0000
  O2          0.70410      0.91562      0.14665  1.0000
  O2          0.19653      0.90361      0.34727  1.0000
  O1          0.68405      0.76747      0.02932  1.0000
  O2          0.08328      0.28856      0.66895  1.0000
  O1          0.75780      0.07265      0.84910  1.0000
  O2          0.28179      0.19905      0.50906  1.0000
  O2          0.90774      0.70635      0.19166  1.0000
  O2          0.32398      0.65629      0.24632  1.0000
  O2          0.33574      0.66488      0.56701  1.0000
  O1          0.34733      0.68950      0.91639  1.0000
  O3          0.64518      0.34956      0.73136  1.0000
  O2          0.65411      0.33009      0.08587  1.0000
  O2          0.66404      0.32259      0.40986  1.0000
  O1          0.37571      0.31663      0.97183  1.0000
  O2          0.66407      0.04753      0.30059  1.0000
  O2          0.94969      0.62034      0.62475  1.0000
  O2          0.61130      0.66665      0.46061  1.0000
  O1          0.28394      0.92083      0.78879  1.0000
  O2          0.05004      0.39002      0.13704  1.0000
  O2          0.32418      0.37456      0.35448  1.0000
  O3          0.05971      0.68106      0.02688  1.0000
  O3          0.60968      0.95600      0.67897  1.0000
  O1          0.69208      0.62235      0.87067  1.0000
  O2          0.93799      0.32602      0.51707  1.0000
  O2          0.37606      0.05332      0.19407  1.0000
  O2          0.78776      0.31788      0.01613  1.0000
  O2          0.68891      0.46886      0.33795  1.0000
  O3          0.52907      0.22313      0.66007  1.0000
  O2          0.21193      0.69094      0.49763  1.0000
  O1          0.27876      0.50758      0.84874  1.0000
  O2          0.47092      0.78473      0.17548  1.0000
  O2          0.29895      0.77399      0.31761  1.0000
  O1          0.44405      0.62689      0.99552  1.0000
  O2          0.21240      0.51910      0.63915  1.0000
  O1          0.69769      0.22537      0.80150  1.0000
  O2          0.51628      0.30062      0.48035  1.0000
  O2          0.77400      0.47553      0.15660  1.0000
  O3          0.76748      0.52888      0.02856  1.0000
  O2          0.45743      0.25148      0.35476  1.0000
  O2          0.72362      0.20267      0.69371  1.0000
  O2          0.19394      0.45860      0.51277  1.0000
  O1          0.53654      0.73069      0.85189  1.0000
  O2          0.25297      0.79759      0.19213  1.0000
  O2          0.53006      0.79100      0.30149  1.0000
  O1          0.22081      0.43748      0.95411  1.0000
  O2          0.20494      0.74114      0.62378  1.0000
  O1          0.45023      0.20696      0.79859  1.0000
  O2          0.73313      0.53248      0.46316  1.0000
  O2          0.79928      0.27221      0.13766  1.0000
  O1          0.24489      0.27861      0.88800  1.0000
  O2          0.67512      0.91625      0.22962  1.0000
  O2          0.08028      0.76274      0.55264  1.0000
  O2          0.75548      0.67584      0.39004  1.0000
  O1          0.30221      0.10646      0.71668  1.0000
  O2          0.92272      0.24928      0.06803  1.0000
  O2          0.31250      0.23139      0.42644  1.0000
  O3          0.90592      0.69244      0.10894  1.0000
  O3          0.72904      0.04295      0.75415  1.0000
  O1          0.65184      0.77566      0.93694  1.0000
  O2          0.07505      0.31466      0.58599  1.0000
  O2          0.23191      0.91580      0.26505  1.0000
  O1          0.62651      0.55340      0.97720  1.0000
  O2          0.43570      0.02989      0.32003  1.0000
  O2          0.95637      0.39923      0.64177  1.0000
  O2          0.39798      0.43802      0.48013  1.0000
  O1          0.52349      0.95468      0.81516  1.0000
  O2          0.02895      0.59539      0.15693  1.0000
  O2          0.55216      0.58785      0.33480  1.0000
  O2          0.04315      0.45129      0.01431  1.0000
  O1          0.37509      0.95423      0.66256  1.0000
  O1          0.45885      0.42828      0.82945  1.0000
  O2          0.95558      0.55611      0.49859  1.0000
  O2          0.59264      0.04117      0.17547  1.0000
  O2          0.57899      0.17051      0.24824  1.0000
  O2          0.82210      0.41478      0.57135  1.0000
  O1          0.57237      0.37225      0.90853  1.0000
  O1          0.39576      0.80516      0.73572  1.0000
  O2          0.16926      0.59875      0.08508  1.0000
  O2          0.40857      0.58095      0.40672  1.0000
  F           0.45062      0.91224      0.24616  1.0000
  F           0.08003      0.54073      0.57003  1.0000
  F           0.45243      0.51409      0.91212  1.0000
  F           0.48347      0.06698      0.74125  1.0000
  F           0.91494      0.49968      0.08041  1.0000
  F           0.53684      0.45091      0.40822  1.0000
