data_cif

_audit_creation_method             'generated by GULP'

_symmetry_space_group_name_H-M     'P 1'
_symmetry_Int_Tables_number        1
_symmetry_cell_setting             triclinic

_cell_length_a                       12.0609
_cell_length_b                       12.0742
_cell_length_c                       30.0136
_cell_angle_alpha                   90.5930
_cell_angle_beta                    89.0867
_cell_angle_gamma                  119.9228

loop_
_atom_site_label
_atom_site_fract_x
_atom_site_fract_y
_atom_site_fract_z
_atom_site_occupancy
  Si          0.69960      0.37570      0.03389  1.0000
  Si          0.59737      0.32367      0.35444  1.0000
  Ge          0.65930      0.29798      0.69860  1.0000
  Ge          0.28395      0.62031      0.52421  1.0000
  Si          0.35866      0.66445      0.86949  1.0000
  Si          0.31164      0.70316      0.19519  1.0000
  Si          0.36415      0.70713      0.29397  1.0000
  Si          0.31411      0.60914      0.97071  1.0000
  Ge          0.28277      0.68052      0.62699  1.0000
  Ge          0.60023      0.30866      0.80185  1.0000
  Si          0.64632      0.37165      0.45358  1.0000
  Si          0.69460      0.32066      0.13258  1.0000
  Si          0.52931      0.40740      0.96908  1.0000
  Si          0.56453      0.11105      0.29293  1.0000
  Ge          0.84903      0.47215      0.62422  1.0000
  Si          0.45758      0.58534      0.45564  1.0000
  Ge          0.40218      0.87519      0.80349  1.0000
  Si          0.10117      0.52531      0.13366  1.0000
  Si          0.40331      0.53480      0.35609  1.0000
  Si          0.10183      0.57440      0.03405  1.0000
  Ge          0.45400      0.86880      0.70129  1.0000
  Ge          0.55992      0.48115      0.87269  1.0000
  Ge          0.85444      0.41996      0.52044  1.0000
  Si          0.51485      0.10722      0.19324  1.0000
  Si          0.28388      0.38270      0.85188  1.0000
  Si          0.58815      0.90122      0.17980  1.0000
  Ge          0.07960      0.70474      0.50790  1.0000
  Si          0.68112      0.60168      0.34153  1.0000
  Ge          0.37528      0.07688      0.68005  1.0000
  Si          0.89840      0.29685      0.01936  1.0000
  Si          0.37042      0.30219      0.46832  1.0000
  Si          0.89299      0.59733      0.14662  1.0000
  Ge          0.68480      0.10044      0.81821  1.0000
  Si          0.59575      0.69161      0.98232  1.0000
  Ge          0.06157      0.39641      0.64404  1.0000
  Si          0.28493      0.90596      0.30752  1.0000
  Si          0.24761      0.32769      0.95356  1.0000
  Si          0.64415      0.91233      0.27883  1.0000
  Ge          0.06502      0.75253      0.61006  1.0000
  Si          0.73440      0.65564      0.44061  1.0000
  Ge          0.31337      0.07466      0.78235  1.0000
  Si          0.90252      0.24790      0.11849  1.0000
  Si          0.31899      0.25538      0.36900  1.0000
  Si          0.90407      0.65539      0.04754  1.0000
  Ge          0.73336      0.08155      0.71510  1.0000
  Si          0.65000      0.75714      0.88181  1.0000
  Ge          0.05661      0.33309      0.54140  1.0000
  Si          0.23732      0.90930      0.20826  1.0000
  Si          0.96738      0.11687      0.96835  1.0000
  Si          0.86111      0.85043      0.29265  1.0000
  Ge          0.14255      0.04064      0.62333  1.0000
  Si          0.01320      0.88025      0.45454  1.0000
  Si          0.09895      0.14138      0.80206  1.0000
  Si          0.83796      0.96804      0.13058  1.0000
  Si          0.10324      0.97709      0.35571  1.0000
  Si          0.84247      0.87277      0.03154  1.0000
  Ge          0.02247      0.15996      0.69920  1.0000
  Si          0.86641      0.04215      0.86948  1.0000
  Si          0.12296      0.11871      0.52001  1.0000
  Si          0.95840      0.84699      0.19394  1.0000
  O2          0.92080      0.99016      0.99781  1.0000
  O2          0.98231      0.93122      0.32385  1.0000
  O1          0.10364      0.12678      0.65918  1.0000
  O2          0.04476      0.99414      0.48932  1.0000
  O2          0.97105      0.06474      0.83160  1.0000
  O2          0.91632      0.92265      0.16079  1.0000
  O2          0.32738      0.58561      0.32579  1.0000
  O1          0.40289      0.74143      0.66463  1.0000
  O2          0.22998      0.64706      0.00291  1.0000
  O1          0.64242      0.43590      0.83494  1.0000
  O2          0.56796      0.23427      0.16263  1.0000
  O3          0.72433      0.33105      0.48516  1.0000
  O2          0.57433      0.33639      0.00412  1.0000
  O1          0.72188      0.41994      0.66064  1.0000
  O2          0.63787      0.23869      0.32320  1.0000
  O3          0.41476      0.66123      0.48864  1.0000
  O2          0.22631      0.57731      0.16467  1.0000
  O3          0.31629      0.74447      0.84057  1.0000
  O2          0.12082      0.20508      0.97438  1.0000
  O2          0.76933      0.91215      0.29803  1.0000
  O1          0.05620      0.88133      0.63296  1.0000
  O2          0.86045      0.77910      0.46005  1.0000
  O3          0.18312      0.07575      0.80873  1.0000
  O2          0.90070      0.12101      0.13723  1.0000
  O2          0.19345      0.13006      0.34926  1.0000
  O2          0.90558      0.78182      0.02827  1.0000
  O1          0.86230      0.07143      0.69295  1.0000
  O2          0.76202      0.89262      0.86449  1.0000
  O3          0.05241      0.19933      0.51680  1.0000
  O2          0.11181      0.90884      0.18885  1.0000
  O2          0.91559      0.86402      0.24289  1.0000
  O3          0.12098      0.07740      0.57019  1.0000
  O2          0.93282      0.07361      0.91758  1.0000
  O3          0.06861      0.13569      0.75044  1.0000
  O2          0.85251      0.93166      0.08017  1.0000
  O2          0.04803      0.94102      0.40538  1.0000
  O2          0.89888      0.19805      0.98224  1.0000
  O2          0.78029      0.70016      0.30438  1.0000
  O1          0.29845      0.08527      0.63338  1.0000
  O3          0.09017      0.81045      0.46540  1.0000
  O2          0.17436      0.29106      0.81701  1.0000
  O2          0.68710      0.89943      0.14253  1.0000
  O2          0.18628      0.90813      0.34461  1.0000
  O2          0.69244      0.78804      0.01973  1.0000
  O1          0.06378      0.31583      0.69075  1.0000
  O3          0.79633      0.11975      0.85986  1.0000
  O2          0.27285      0.20579      0.50565  1.0000
  O2          0.89088      0.69564      0.18354  1.0000
  O2          0.30972      0.64859      0.24475  1.0000
  O1          0.34059      0.70691      0.57266  1.0000
  O2          0.31209      0.65831      0.92116  1.0000
  O1          0.68774      0.35458      0.75216  1.0000
  O2          0.64191      0.31973      0.08302  1.0000
  O2          0.64784      0.31747      0.40371  1.0000
  O2          0.37163      0.32163      0.96996  1.0000
  O2          0.65262      0.04403      0.29637  1.0000
  O1          0.91055      0.63383      0.61951  1.0000
  O2          0.61287      0.66593      0.45917  1.0000
  O1          0.32064      0.95677      0.81140  1.0000
  O2          0.03345      0.37003      0.13630  1.0000
  O2          0.31323      0.37989      0.35228  1.0000
  O2          0.03569      0.66296      0.02942  1.0000
  O1          0.61602      0.92822      0.70401  1.0000
  O3          0.67114      0.64753      0.86183  1.0000
  O1          0.94243      0.34481      0.51224  1.0000
  O2          0.35981      0.03957      0.18963  1.0000
  O2          0.76766      0.30081      0.01122  1.0000
  O2          0.67615      0.46637      0.33291  1.0000
  O1          0.49978      0.22811      0.68636  1.0000
  O1          0.19932      0.67389      0.49433  1.0000
  O2          0.29053      0.52060      0.84907  1.0000
  O2          0.45430      0.76881      0.17261  1.0000
  O2          0.28693      0.77412      0.31546  1.0000
  O2          0.45854      0.68362      0.98979  1.0000
  O1          0.21352      0.51951      0.63781  1.0000
  O1          0.64551      0.21323      0.83049  1.0000
  O2          0.50317      0.30252      0.47581  1.0000
  O2          0.76051      0.46368      0.15402  1.0000
  O2          0.77953      0.53071      0.02833  1.0000
  O2          0.44299      0.25339      0.34888  1.0000
  O1          0.72144      0.19830      0.68670  1.0000
  O1          0.20780      0.45880      0.53259  1.0000
  O2          0.51374      0.73835      0.86533  1.0000
  O2          0.23726      0.78347      0.18941  1.0000
  O2          0.51880      0.78914      0.29862  1.0000
  O2          0.25490      0.45646      0.97262  1.0000
  O1          0.18183      0.74132      0.63846  1.0000
  O1          0.44032      0.22398      0.78910  1.0000
  O2          0.72860      0.52751      0.45887  1.0000
  O2          0.77805      0.24963      0.13799  1.0000
  O2          0.22907      0.31483      0.90052  1.0000
  O2          0.66108      0.90803      0.22541  1.0000
  O1          0.10473      0.79623      0.55507  1.0000
  O2          0.75211      0.67228      0.38708  1.0000
  O1          0.27688      0.03579      0.72711  1.0000
  O2          0.90072      0.22864      0.06512  1.0000
  O2          0.29963      0.23478      0.42221  1.0000
  O2          0.90029      0.67116      0.10090  1.0000
  O1          0.77305      0.12277      0.77002  1.0000
  O2          0.66068      0.76173      0.93609  1.0000
  O1          0.01920      0.29966      0.59693  1.0000
  O2          0.21774      0.90909      0.26161  1.0000
  O2          0.57951      0.55224      0.98837  1.0000
  O2          0.42402      0.02860      0.31600  1.0000
  O1          0.94917      0.43961      0.65512  1.0000
  O2          0.38692      0.44192      0.47708  1.0000
  O1          0.55526      0.94986      0.82337  1.0000
  O2          0.01546      0.58113      0.15591  1.0000
  O2          0.54390      0.59048      0.33308  1.0000
  O2          0.02402      0.43464      0.01051  1.0000
  O1          0.41408      0.96156      0.66884  1.0000
  O3          0.41548      0.39167      0.83973  1.0000
  O1          0.92983      0.57513      0.50265  1.0000
  O2          0.57327      0.02452      0.17019  1.0000
  O2          0.56540      0.16072      0.24287  1.0000
  O1          0.79273      0.39527      0.57401  1.0000
  O3          0.58440      0.40653      0.92111  1.0000
  O1          0.37739      0.80477      0.75157  1.0000
  O2          0.15445      0.57724      0.08366  1.0000
  O2          0.40565      0.58861      0.40607  1.0000
  F           0.43672      0.90342      0.24296  1.0000
  F           0.05934      0.55634      0.57270  1.0000
  F           0.46611      0.52712      0.90937  1.0000
  F           0.52337      0.05815      0.74938  1.0000
  F           0.89809      0.44931      0.08174  1.0000
  F           0.52739      0.45223      0.40482  1.0000
