data_cif

_audit_creation_method             'generated by GULP'

_symmetry_space_group_name_H-M     'P 1'
_symmetry_Int_Tables_number        1
_symmetry_cell_setting             triclinic

_cell_length_a                       12.0785
_cell_length_b                       12.0526
_cell_length_c                       30.0196
_cell_angle_alpha                   89.7813
_cell_angle_beta                    90.2817
_cell_angle_gamma                  119.8824

loop_
_atom_site_label
_atom_site_fract_x
_atom_site_fract_y
_atom_site_fract_z
_atom_site_occupancy
  Si          0.69960      0.37570      0.03389  1.0000
  Ge          0.61003      0.30232      0.37966  1.0000
  Si          0.65739      0.28201      0.71095  1.0000
  Si          0.28431      0.61911      0.55290  1.0000
  Si          0.37015      0.66770      0.87480  1.0000
  Ge          0.30448      0.68301      0.20326  1.0000
  Ge          0.36330      0.68392      0.30539  1.0000
  Si          0.31922      0.61027      0.97349  1.0000
  Si          0.27826      0.66810      0.65153  1.0000
  Si          0.60706      0.28734      0.80971  1.0000
  Ge          0.66989      0.36073      0.48137  1.0000
  Si          0.69710      0.32401      0.13311  1.0000
  Si          0.52231      0.40991      0.97149  1.0000
  Ge          0.59010      0.11421      0.30456  1.0000
  Si          0.87094      0.45540      0.64895  1.0000
  Ge          0.43612      0.56245      0.48499  1.0000
  Si          0.40615      0.88130      0.81325  1.0000
  Si          0.09843      0.51069      0.13515  1.0000
  Ge          0.38663      0.51442      0.38005  1.0000
  Si          0.10602      0.56947      0.03558  1.0000
  Si          0.45525      0.87935      0.71347  1.0000
  Si          0.57120      0.46327      0.87164  1.0000
  Si          0.88084      0.40520      0.54943  1.0000
  Ge          0.53469      0.11372      0.20024  1.0000
  Si          0.29214      0.39144      0.85913  1.0000
  Ge          0.59389      0.88589      0.18787  1.0000
  Si          0.07909      0.68745      0.53642  1.0000
  Ge          0.67669      0.58810      0.36240  1.0000
  Si          0.38029      0.08365      0.69792  1.0000
  Si          0.89505      0.29247      0.02137  1.0000
  Ge          0.38194      0.27797      0.49693  1.0000
  Si          0.90296      0.59836      0.14798  1.0000
  Si          0.68513      0.08866      0.82541  1.0000
  Si          0.59633      0.68890      0.98663  1.0000
  Si          0.08223      0.38964      0.66452  1.0000
  Ge          0.30091      0.90308      0.32461  1.0000
  Si          0.24451      0.33073      0.95812  1.0000
  Ge          0.65218      0.89588      0.28957  1.0000
  Si          0.06741      0.73494      0.63531  1.0000
  Ge          0.72705      0.64779      0.46554  1.0000
  Si          0.32741      0.08032      0.79719  1.0000
  Si          0.89231      0.23511      0.12037  1.0000
  Ge          0.32487      0.23411      0.39631  1.0000
  Si          0.90994      0.65318      0.04871  1.0000
  Si          0.73277      0.07737      0.72645  1.0000
  Si          0.64991      0.74072      0.88743  1.0000
  Si          0.08733      0.33657      0.56573  1.0000
  Ge          0.24492      0.91054      0.22152  1.0000
  Si          0.96507      0.11395      0.97226  1.0000
  Ge          0.86837      0.82513      0.30385  1.0000
  Si          0.12920      0.01254      0.64944  1.0000
  Ge          0.00964      0.86914      0.48441  1.0000
  Si          0.11050      0.14253      0.81106  1.0000
  Si          0.83724      0.95531      0.13404  1.0000
  Ge          0.10749      0.94996      0.37873  1.0000
  Si          0.84677      0.86908      0.03508  1.0000
  Si          0.01198      0.13925      0.71256  1.0000
  Si          0.86659      0.02043      0.87370  1.0000
  Si          0.14012      0.11113      0.55085  1.0000
  Si          0.96326      0.84363      0.20001  1.0000
  O2          0.92420      0.99191      0.00371  1.0000
  O1          0.00213      0.88044      0.33537  1.0000
  O2          0.05283      0.05990      0.68034  1.0000
  O3          0.05716      0.00672      0.51385  1.0000
  O2          0.98861      0.06342      0.84240  1.0000
  O2          0.92072      0.92302      0.16794  1.0000
  O1          0.30867      0.56137      0.34378  1.0000
  O2          0.40094      0.75142      0.68323  1.0000
  O2          0.23344      0.64609      0.00542  1.0000
  O2          0.64571      0.41279      0.84007  1.0000
  O3          0.57769      0.24504      0.16510  1.0000
  O3          0.76249      0.32557      0.51718  1.0000
  O2          0.57637      0.33617      0.00219  1.0000
  O2          0.74292      0.40392      0.67880  1.0000
  O1          0.66737      0.23904      0.34097  1.0000
  O3          0.40148      0.65633      0.52023  1.0000
  O3          0.21668      0.55327      0.16787  1.0000
  O2          0.33156      0.75557      0.84461  1.0000
  O2          0.11837      0.20461      0.97705  1.0000
  O1          0.78623      0.90222      0.31423  1.0000
  O2          0.06589      0.85919      0.65572  1.0000
  O1          0.84966      0.77765      0.49196  1.0000
  O2          0.20249      0.08133      0.81670  1.0000
  O2          0.88840      0.10782      0.13985  1.0000
  O1          0.18512      0.11020      0.37296  1.0000
  O2          0.91056      0.77944      0.02891  1.0000
  O2          0.85881      0.07725      0.70755  1.0000
  O2          0.77489      0.86734      0.86815  1.0000
  O2          0.09072      0.21371      0.54670  1.0000
  O3          0.11476      0.91668      0.19892  1.0000
  O3          0.91249      0.84024      0.24882  1.0000
  O2          0.11077      0.04449      0.59917  1.0000
  O2          0.92167      0.05982      0.92303  1.0000
  O2          0.05514      0.12579      0.76162  1.0000
  O2          0.86249      0.92193      0.08471  1.0000
  O1          0.02906      0.89653      0.42815  1.0000
  O2          0.89608      0.19522      0.98423  1.0000
  O1          0.76836      0.66759      0.31716  1.0000
  O2          0.28024      0.08149      0.66086  1.0000
  O3          0.08567      0.78430      0.49842  1.0000
  O2          0.19215      0.29365      0.82221  1.0000
  O3          0.69057      0.87813      0.14532  1.0000
  O1          0.21777      0.90103      0.37099  1.0000
  O2          0.69585      0.78625      0.02365  1.0000
  O2          0.08065      0.29038      0.70163  1.0000
  O2          0.78506      0.09014      0.86229  1.0000
  O3          0.28718      0.17615      0.54057  1.0000
  O2          0.90473      0.69497      0.18547  1.0000
  O1          0.32866      0.62200      0.25215  1.0000
  O2          0.33848      0.67375      0.60254  1.0000
  O2          0.31634      0.66747      0.92449  1.0000
  O2          0.66037      0.34142      0.75991  1.0000
  O2          0.64200      0.32424      0.08342  1.0000
  O1          0.64296      0.27295      0.43326  1.0000
  O2          0.36750      0.32149      0.97545  1.0000
  O1          0.68833      0.05072      0.29818  1.0000
  O2          0.93665      0.61063      0.65199  1.0000
  O1          0.59696      0.62737      0.49423  1.0000
  O2          0.31923      0.94983      0.81591  1.0000
  O2          0.02333      0.35525      0.13915  1.0000
  O1          0.28924      0.35292      0.38635  1.0000
  O2          0.04074      0.65957      0.03214  1.0000
  O2          0.60993      0.94555      0.70913  1.0000
  O2          0.65823      0.61866      0.86880  1.0000
  O2          0.95723      0.32619      0.54619  1.0000
  O1          0.37216      0.02441      0.19221  1.0000
  O2          0.76489      0.29751      0.01296  1.0000
  O1          0.70289      0.46233      0.36844  1.0000
  O2          0.51427      0.21528      0.68932  1.0000
  O2          0.21241      0.68834      0.52994  1.0000
  O2          0.29358      0.52586      0.85233  1.0000
  O1          0.44431      0.76721      0.17379  1.0000
  O1          0.27040      0.74952      0.31883  1.0000
  O2          0.46224      0.68632      0.99512  1.0000
  O2          0.21180      0.52490      0.67299  1.0000
  O2          0.68374      0.22153      0.83203  1.0000
  O1          0.53084      0.30701      0.51128  1.0000
  O2          0.77007      0.46580      0.15573  1.0000
  O2          0.78492      0.53016      0.02869  1.0000
  O1          0.44879      0.23525      0.36735  1.0000
  O2          0.73144      0.20091      0.70615  1.0000
  O2          0.21240      0.46327      0.54768  1.0000
  O2          0.52451      0.74117      0.86887  1.0000
  O1          0.21920      0.75969      0.21177  1.0000
  O1          0.52444      0.77603      0.31793  1.0000
  O2          0.24577      0.45523      0.97829  1.0000
  O2          0.19316      0.73782      0.65531  1.0000
  O2          0.45276      0.20595      0.81554  1.0000
  O1          0.75411      0.52183      0.47177  1.0000
  O2          0.76887      0.23967      0.13861  1.0000
  O2          0.22523      0.31653      0.90478  1.0000
  O1          0.65933      0.85818      0.23475  1.0000
  O2          0.06991      0.75609      0.58186  1.0000
  O1          0.72516      0.68239      0.40983  1.0000
  O2          0.30931      0.08096      0.74383  1.0000
  O2          0.89364      0.21975      0.06692  1.0000
  O1          0.31213      0.18201      0.45093  1.0000
  O2          0.90713      0.67079      0.10192  1.0000
  O2          0.75211      0.08147      0.77976  1.0000
  O2          0.66754      0.75813      0.94077  1.0000
  O2          0.08462      0.31918      0.61918  1.0000
  O1          0.25063      0.94743      0.27700  1.0000
  O2          0.58059      0.54944      0.99483  1.0000
  O1          0.45787      0.00959      0.33513  1.0000
  O2          0.95636      0.40148      0.67219  1.0000
  O1          0.35553      0.40498      0.50001  1.0000
  O2          0.54688      0.96602      0.83536  1.0000
  O2          0.02576      0.58131      0.15680  1.0000
  O1          0.52154      0.54299      0.35080  1.0000
  O2          0.02064      0.42990      0.01285  1.0000
  O2          0.39618      0.96010      0.68984  1.0000
  O2          0.43054      0.40715      0.84935  1.0000
  O2          0.95473      0.54844      0.52743  1.0000
  O1          0.61382      0.03642      0.18392  1.0000
  O1          0.56652      0.16949      0.25442  1.0000
  O2          0.82378      0.40250      0.59879  1.0000
  O2          0.57222      0.41014      0.92136  1.0000
  O2          0.40550      0.82853      0.76353  1.0000
  O2          0.15492      0.56404      0.08559  1.0000
  O1          0.40951      0.59096      0.43063  1.0000
  F           0.46042      0.89345      0.25331  1.0000
  F           0.08308      0.54014      0.59935  1.0000
  F           0.44337      0.53969      0.92300  1.0000
  F           0.53393      0.08646      0.76125  1.0000
  F           0.89666      0.44284      0.08545  1.0000
  F           0.50717      0.40970      0.43197  1.0000
