data_cif

_audit_creation_method             'generated by GULP'

_symmetry_space_group_name_H-M     'P 1'
_symmetry_Int_Tables_number        1
_symmetry_cell_setting             triclinic

_cell_length_a                       12.0304
_cell_length_b                       12.0640
_cell_length_c                       30.0451
_cell_angle_alpha                   88.8432
_cell_angle_beta                    91.3887
_cell_angle_gamma                  119.5911

loop_
_atom_site_label
_atom_site_fract_x
_atom_site_fract_y
_atom_site_fract_z
_atom_site_occupancy
  Si          0.69960      0.37570      0.03389  1.0000
  Si          0.61269      0.34648      0.38051  1.0000
  Si          0.65873      0.30090      0.70554  1.0000
  Si          0.26990      0.63080      0.54494  1.0000
  Si          0.37481      0.67466      0.86424  1.0000
  Ge          0.30433      0.71430      0.20287  1.0000
  Ge          0.37749      0.71420      0.30603  1.0000
  Si          0.32167      0.62199      0.96303  1.0000
  Si          0.27622      0.68390      0.64354  1.0000
  Si          0.60725      0.29552      0.80433  1.0000
  Si          0.65534      0.39854      0.48181  1.0000
  Ge          0.68651      0.31488      0.13674  1.0000
  Si          0.52716      0.41941      0.96698  1.0000
  Ge          0.57440      0.15330      0.30912  1.0000
  Si          0.86931      0.48036      0.64462  1.0000
  Si          0.44157      0.60308      0.48038  1.0000
  Si          0.40811      0.88966      0.80311  1.0000
  Ge          0.11713      0.52544      0.13185  1.0000
  Ge          0.41024      0.54411      0.38199  1.0000
  Ge          0.11657      0.57752      0.03070  1.0000
  Si          0.45734      0.89665      0.70348  1.0000
  Si          0.57453      0.46932      0.86710  1.0000
  Si          0.86842      0.43358      0.54514  1.0000
  Ge          0.50603      0.13140      0.20910  1.0000
  Si          0.29514      0.39779      0.85263  1.0000
  Ge          0.59162      0.93682      0.18329  1.0000
  Si          0.07063      0.71044      0.53036  1.0000
  Si          0.68714      0.62958      0.36476  1.0000
  Si          0.38301      0.10277      0.69009  1.0000
  Si          0.89970      0.29086      0.01916  1.0000
  Si          0.37341      0.31870      0.49459  1.0000
  Ge          0.91256      0.60174      0.15244  1.0000
  Si          0.68630      0.09547      0.81741  1.0000
  Si          0.59875      0.69757      0.97839  1.0000
  Si          0.07849      0.40787      0.65760  1.0000
  Ge          0.29439      0.92307      0.32491  1.0000
  Si          0.24700      0.34097      0.95194  1.0000
  Ge          0.65769      0.94803      0.28553  1.0000
  Si          0.06730      0.75715      0.62946  1.0000
  Si          0.72298      0.68143      0.46627  1.0000
  Si          0.32838      0.08946      0.78905  1.0000
  Ge          0.91502      0.24901      0.12253  1.0000
  Ge          0.32192      0.26601      0.39275  1.0000
  Si          0.91617      0.66241      0.05075  1.0000
  Si          0.73402      0.09441      0.71845  1.0000
  Si          0.65501      0.74747      0.87959  1.0000
  Si          0.06666      0.35175      0.55856  1.0000
  Ge          0.22602      0.93007      0.22146  1.0000
  Si          0.96814      0.11839      0.96610  1.0000
  Ge          0.86330      0.86609      0.30751  1.0000
  Si          0.13201      0.03640      0.64137  1.0000
  Si          0.00084      0.89119      0.47943  1.0000
  Si          0.11156      0.15120      0.80377  1.0000
  Ge          0.82114      0.95666      0.12864  1.0000
  Ge          0.10394      0.97063      0.37823  1.0000
  Si          0.84647      0.87553      0.02854  1.0000
  Si          0.01346      0.15766      0.70500  1.0000
  Si          0.87038      0.02739      0.86679  1.0000
  Si          0.12865      0.13499      0.54267  1.0000
  Ge          0.93187      0.83496      0.20426  1.0000
  O2          0.93312      0.99187      0.99480  1.0000
  O1          0.00943      0.94604      0.33182  1.0000
  O2          0.05579      0.08244      0.67212  1.0000
  O2          0.05433      0.02087      0.50755  1.0000
  O2          0.99127      0.07098      0.83526  1.0000
  O1          0.85320      0.85697      0.15982  1.0000
  O1          0.33360      0.59419      0.34283  1.0000
  O2          0.40371      0.76990      0.67315  1.0000
  O3          0.23641      0.65969      0.99166  1.0000
  O2          0.64734      0.41675      0.83628  1.0000
  O1          0.56079      0.25906      0.17009  1.0000
  O2          0.73992      0.36023      0.51420  1.0000
  O2          0.58360      0.34871      0.99913  1.0000
  O2          0.74399      0.42754      0.67535  1.0000
  O3          0.65945      0.27360      0.34928  1.0000
  O2          0.39499      0.67256      0.51508  1.0000
  O1          0.25084      0.59104      0.16741  1.0000
  O2          0.33456      0.76078      0.83287  1.0000
  O2          0.12144      0.21496      0.97096  1.0000
  O1          0.78347      0.94632      0.31491  1.0000
  O2          0.06954      0.88367      0.64834  1.0000
  O2          0.84819      0.80230      0.48822  1.0000
  O2          0.20251      0.08777      0.80840  1.0000
  O1          0.91434      0.11282      0.14224  1.0000
  O1          0.19372      0.13149      0.37373  1.0000
  O2          0.90229      0.77845      0.02790  1.0000
  O2          0.86019      0.09610      0.69928  1.0000
  O2          0.78129      0.87431      0.86142  1.0000
  O2          0.06397      0.22531      0.53916  1.0000
  O1          0.09236      0.93802      0.20368  1.0000
  O1          0.86294      0.84823      0.25123  1.0000
  O2          0.11398      0.07144      0.59094  1.0000
  O2          0.92632      0.07199      0.91588  1.0000
  O2          0.05554      0.14027      0.75424  1.0000
  O3          0.85632      0.93794      0.07475  1.0000
  O3          0.02249      0.92598      0.42797  1.0000
  O2          0.89293      0.19034      0.98175  1.0000
  O3          0.79649      0.71406      0.33077  1.0000
  O2          0.28328      0.10459      0.65275  1.0000
  O2          0.07140      0.81036      0.49297  1.0000
  O2          0.19466      0.30041      0.81584  1.0000
  O1          0.66784      0.92113      0.13738  1.0000
  O1          0.19537      0.90269      0.36981  1.0000
  O2          0.69584      0.79638      0.01511  1.0000
  O2          0.08089      0.30886      0.69453  1.0000
  O2          0.78593      0.09438      0.85455  1.0000
  O2          0.27951      0.22307      0.53319  1.0000
  O1          0.90976      0.68605      0.19790  1.0000
  O1          0.28293      0.66687      0.25831  1.0000
  O2          0.32797      0.68495      0.59405  1.0000
  O2          0.32162      0.67692      0.91307  1.0000
  O2          0.66011      0.35409      0.75502  1.0000
  O3          0.64285      0.30405      0.07970  1.0000
  O2          0.65943      0.35090      0.43234  1.0000
  O2          0.37180      0.33379      0.97086  1.0000
  O1          0.64991      0.06459      0.31505  1.0000
  O2          0.93691      0.63527      0.64736  1.0000
  O2          0.59846      0.68815      0.48144  1.0000
  O2          0.32053      0.95763      0.80659  1.0000
  O1          0.06387      0.36336      0.13919  1.0000
  O1          0.30107      0.38405      0.37007  1.0000
  O3          0.03466      0.66327      0.02745  1.0000
  O2          0.61230      0.96461      0.69967  1.0000
  O2          0.66306      0.62400      0.86307  1.0000
  O2          0.93489      0.34510      0.54050  1.0000
  O1          0.34449      0.08182      0.20896  1.0000
  O2          0.77880      0.31461      0.01148  1.0000
  O2          0.67562      0.49042      0.36119  1.0000
  O2          0.51602      0.23533      0.68285  1.0000
  O2          0.20125      0.70615      0.52231  1.0000
  O2          0.29752      0.53197      0.84338  1.0000
  O1          0.46590      0.78913      0.19148  1.0000
  O1          0.35132      0.82275      0.33490  1.0000
  O2          0.46441      0.69442      0.98576  1.0000
  O2          0.21059      0.54094      0.66511  1.0000
  O2          0.68392      0.22675      0.82548  1.0000
  O2          0.51054      0.32356      0.49996  1.0000
  O1          0.76483      0.47425      0.15056  1.0000
  O2          0.78771      0.52764      0.04075  1.0000
  O3          0.45993      0.26743      0.37640  1.0000
  O2          0.73342      0.22060      0.69975  1.0000
  O2          0.19068      0.47625      0.53918  1.0000
  O2          0.52940      0.74639      0.85882  1.0000
  O1          0.24578      0.81924      0.19299  1.0000
  O1          0.53450      0.79478      0.29040  1.0000
  O2          0.24698      0.46635      0.96983  1.0000
  O2          0.19228      0.75478      0.64883  1.0000
  O2          0.45277      0.21299      0.80883  1.0000
  O2          0.71368      0.55070      0.48450  1.0000
  O1          0.78874      0.25337      0.14621  1.0000
  O2          0.22873      0.32545      0.89855  1.0000
  O1          0.69417      0.98290      0.23032  1.0000
  O2          0.06796      0.77739      0.57610  1.0000
  O2          0.74321      0.69611      0.41340  1.0000
  O2          0.31051      0.09518      0.73569  1.0000
  O3          0.89064      0.21950      0.06523  1.0000
  O3          0.30082      0.24747      0.45053  1.0000
  O3          0.93960      0.69209      0.10264  1.0000
  O2          0.75363      0.09285      0.77174  1.0000
  O2          0.67059      0.76597      0.93273  1.0000
  O2          0.07174      0.33542      0.61189  1.0000
  O1          0.20037      0.89144      0.27748  1.0000
  O2          0.58780      0.56025      0.98839  1.0000
  O1          0.41696      0.07756      0.32534  1.0000
  O2          0.95568      0.42397      0.66676  1.0000
  O2          0.39312      0.45972      0.50039  1.0000
  O2          0.54859      0.97185      0.82615  1.0000
  O1          0.04302      0.58759      0.16534  1.0000
  O3          0.55900      0.63133      0.35286  1.0000
  O3          0.02822      0.42185      0.01161  1.0000
  O2          0.39825      0.97976      0.68042  1.0000
  O2          0.43352      0.41193      0.84410  1.0000
  O2          0.94511      0.57333      0.52139  1.0000
  O1          0.55798      0.05542      0.17168  1.0000
  O1          0.59112      0.21833      0.25684  1.0000
  O2          0.81597      0.43016      0.59461  1.0000
  O2          0.57615      0.41667      0.91725  1.0000
  O2          0.40769      0.84199      0.75304  1.0000
  O1          0.19120      0.59275      0.08078  1.0000
  O3          0.38719      0.60872      0.43228  1.0000
  F           0.46084      0.97519      0.24947  1.0000
  F           0.07188      0.55675      0.59255  1.0000
  F           0.44801      0.54736      0.91566  1.0000
  F           0.53461      0.09878      0.75309  1.0000
  F           0.95089      0.46150      0.09387  1.0000
  F           0.49782      0.47947      0.41947  1.0000
