data_cif

_audit_creation_method             'generated by GULP'

_symmetry_space_group_name_H-M     'P 1'
_symmetry_Int_Tables_number        1
_symmetry_cell_setting             triclinic

_cell_length_a                       11.9725
_cell_length_b                       11.9967
_cell_length_c                       29.4768
_cell_angle_alpha                   89.7873
_cell_angle_beta                    89.5039
_cell_angle_gamma                  120.4688

loop_
_atom_site_label
_atom_site_fract_x
_atom_site_fract_y
_atom_site_fract_z
_atom_site_occupancy
  Si          0.69960      0.37570      0.03389  1.0000
  Si          0.62477      0.33191      0.36735  1.0000
  Si          0.66647      0.29166      0.69925  1.0000
  Si          0.29777      0.62385      0.53586  1.0000
  Si          0.36544      0.67416      0.86907  1.0000
  Si          0.32848      0.70946      0.20502  1.0000
  Si          0.38256      0.71164      0.30501  1.0000
  Si          0.31568      0.61948      0.97198  1.0000
  Si          0.28781      0.67249      0.63639  1.0000
  Si          0.61198      0.29546      0.79967  1.0000
  Si          0.67766      0.38222      0.46799  1.0000
  Ge          0.72329      0.33443      0.13203  1.0000
  Si          0.52973      0.40969      0.96659  1.0000
  Si          0.58910      0.12282      0.30250  1.0000
  Si          0.87918      0.46455      0.63393  1.0000
  Si          0.47206      0.58695      0.47121  1.0000
  Si          0.40638      0.88714      0.80409  1.0000
  Si          0.11529      0.53370      0.14164  1.0000
  Si          0.42027      0.53899      0.36956  1.0000
  Si          0.11666      0.59167      0.03906  1.0000
  Si          0.45574      0.88018      0.70251  1.0000
  Si          0.57553      0.47011      0.86301  1.0000
  Si          0.88605      0.41699      0.53240  1.0000
  Si          0.54065      0.12349      0.19995  1.0000
  Si          0.28831      0.39493      0.84897  1.0000
  Si          0.60804      0.90978      0.18883  1.0000
  Si          0.09745      0.70046      0.51950  1.0000
  Si          0.70214      0.61132      0.35389  1.0000
  Si          0.38580      0.08963      0.68695  1.0000
  Si          0.90924      0.30316      0.02305  1.0000
  Si          0.39981      0.30592      0.48427  1.0000
  Si          0.90103      0.60606      0.15692  1.0000
  Si          0.68875      0.09628      0.81685  1.0000
  Si          0.59909      0.69251      0.98403  1.0000
  Si          0.08579      0.39227      0.64971  1.0000
  Si          0.30679      0.91217      0.31844  1.0000
  Ge          0.26339      0.35444      0.94908  1.0000
  Si          0.66490      0.92060      0.28951  1.0000
  Si          0.08109      0.74508      0.62015  1.0000
  Si          0.75077      0.66357      0.45462  1.0000
  Si          0.32882      0.08672      0.78776  1.0000
  Si          0.91744      0.24747      0.12537  1.0000
  Si          0.34316      0.25974      0.38381  1.0000
  Si          0.90932      0.66301      0.05388  1.0000
  Si          0.73670      0.08275      0.71613  1.0000
  Si          0.65400      0.74924      0.88164  1.0000
  Si          0.08642      0.33994      0.54900  1.0000
  Si          0.25944      0.91954      0.21799  1.0000
  Si          0.97710      0.12572      0.96863  1.0000
  Si          0.88388      0.86216      0.30359  1.0000
  Si          0.14003      0.02346      0.63541  1.0000
  Si          0.03117      0.88170      0.46961  1.0000
  Si          0.11155      0.14963      0.80042  1.0000
  Si          0.85543      0.97061      0.13635  1.0000
  Si          0.12570      0.97968      0.36876  1.0000
  Si          0.84776      0.87865      0.03453  1.0000
  Si          0.01564      0.14222      0.70021  1.0000
  Si          0.87055      0.03432      0.86846  1.0000
  Si          0.14953      0.12339      0.53470  1.0000
  Si          0.98117      0.86017      0.20360  1.0000
  O2          0.92478      0.99802      0.00056  1.0000
  O2          0.00481      0.93893      0.33634  1.0000
  O2          0.05714      0.06259      0.66764  1.0000
  O2          0.07111      0.00172      0.50246  1.0000
  O2          0.99238      0.07704      0.83535  1.0000
  O2          0.93576      0.92548      0.16635  1.0000
  O2          0.34327      0.58827      0.33818  1.0000
  O2          0.40738      0.75471      0.67066  1.0000
  O2          0.24219      0.66971      0.00602  1.0000
  O2          0.65195      0.42305      0.83006  1.0000
  O3          0.58580      0.24203      0.16728  1.0000
  O2          0.76219      0.34174      0.49963  1.0000
  O2          0.59546      0.34267      0.99426  1.0000
  O2          0.75052      0.41351      0.66562  1.0000
  O2          0.66451      0.24983      0.33426  1.0000
  O2          0.42391      0.66324      0.50413  1.0000
  O2          0.24154      0.58489      0.17301  1.0000
  O2          0.33007      0.76261      0.83792  1.0000
  O3          0.12742      0.20747      0.97072  1.0000
  O2          0.79225      0.92374      0.30981  1.0000
  O2          0.07678      0.86886      0.64013  1.0000
  O2          0.87667      0.78875      0.47540  1.0000
  O2          0.20209      0.08673      0.80771  1.0000
  O2          0.93176      0.12560      0.14131  1.0000
  O2          0.21637      0.13445      0.36359  1.0000
  O2          0.91116      0.78764      0.03173  1.0000
  O2          0.86090      0.07933      0.69550  1.0000
  O2          0.77759      0.87903      0.86205  1.0000
  O2          0.08735      0.21474      0.52890  1.0000
  O2          0.13553      0.92398      0.19796  1.0000
  O2          0.93925      0.88245      0.25278  1.0000
  O2          0.13230      0.06862      0.58529  1.0000
  O2          0.91778      0.07018      0.91923  1.0000
  O2          0.05361      0.12550      0.75055  1.0000
  O2          0.85604      0.93000      0.08476  1.0000
  O2          0.07107      0.93738      0.41929  1.0000
  O2          0.91494      0.21350      0.98366  1.0000
  O2          0.80072      0.70929      0.31509  1.0000
  O2          0.29092      0.09209      0.64863  1.0000
  O2          0.10182      0.80070      0.48137  1.0000
  O2          0.19850      0.30449      0.80752  1.0000
  O2          0.70509      0.90605      0.15071  1.0000
  O2          0.20835      0.91139      0.35692  1.0000
  O2          0.69593      0.79024      0.02168  1.0000
  O2          0.08554      0.29435      0.68810  1.0000
  O2          0.78707      0.10128      0.85549  1.0000
  O2          0.30236      0.20614      0.52304  1.0000
  O2          0.91329      0.70730      0.19526  1.0000
  O2          0.32376      0.65032      0.25543  1.0000
  O2          0.35104      0.67780      0.58662  1.0000
  O2          0.31432      0.67177      0.92055  1.0000
  O2          0.66951      0.35101      0.74919  1.0000
  O3          0.63126      0.31755      0.08133  1.0000
  O2          0.67934      0.32824      0.41754  1.0000
  O3          0.37757      0.31855      0.97286  1.0000
  O2          0.67485      0.05305      0.30718  1.0000
  O2          0.94712      0.62063      0.63788  1.0000
  O2          0.62903      0.67372      0.47394  1.0000
  O2          0.31917      0.95558      0.80772  1.0000
  O2          0.04727      0.37758      0.14261  1.0000
  O2          0.33284      0.38238      0.36645  1.0000
  O2          0.04454      0.67459      0.03788  1.0000
  O2          0.61252      0.94884      0.69980  1.0000
  O2          0.66121      0.62730      0.86201  1.0000
  O2          0.95510      0.33020      0.53000  1.0000
  O2          0.38250      0.05110      0.19969  1.0000
  O2          0.77539      0.30241      0.01621  1.0000
  O2          0.70084      0.47726      0.34588  1.0000
  O2          0.52167      0.22269      0.67850  1.0000
  O2          0.23211      0.70057      0.51331  1.0000
  O2          0.29030      0.53183      0.84644  1.0000
  O2          0.47255      0.77430      0.18235  1.0000
  O2          0.30749      0.77923      0.32783  1.0000
  O2          0.46333      0.68900      0.99080  1.0000
  O2          0.21857      0.52773      0.65834  1.0000
  O2          0.68639      0.22921      0.82354  1.0000
  O2          0.53397      0.30611      0.49129  1.0000
  O3          0.76899      0.47707      0.16508  1.0000
  O2          0.78902      0.53404      0.03373  1.0000
  O2          0.46828      0.25931      0.36336  1.0000
  O2          0.73763      0.20742      0.69515  1.0000
  O2          0.21473      0.46770      0.53056  1.0000
  O2          0.52101      0.73882      0.86592  1.0000
  O2          0.25473      0.79099      0.19873  1.0000
  O2          0.53957      0.79277      0.30981  1.0000
  O3          0.23311      0.46617      0.97823  1.0000
  O2          0.20663      0.74715      0.64079  1.0000
  O2          0.45506      0.21542      0.80607  1.0000
  O2          0.75306      0.53832      0.47355  1.0000
  O3          0.78925      0.23236      0.14633  1.0000
  O3          0.21155      0.30994      0.89221  1.0000
  O2          0.68294      0.91719      0.23524  1.0000
  O2          0.08844      0.76742      0.56594  1.0000
  O2          0.77199      0.68430      0.40033  1.0000
  O2          0.31115      0.08573      0.73351  1.0000
  O2          0.91441      0.23774      0.07014  1.0000
  O2          0.32462      0.23684      0.43814  1.0000
  O2          0.90463      0.67450      0.10817  1.0000
  O2          0.75871      0.09065      0.77037  1.0000
  O2          0.66614      0.75633      0.93583  1.0000
  O2          0.08427      0.31988      0.60334  1.0000
  O2          0.23546      0.91366      0.27227  1.0000
  O2          0.58194      0.55142      0.98981  1.0000
  O2          0.44647      0.03958      0.32594  1.0000
  O2          0.95905      0.40456      0.65800  1.0000
  O2          0.41321      0.44444      0.49409  1.0000
  O2          0.54894      0.96872      0.82657  1.0000
  O2          0.02366      0.58363      0.16236  1.0000
  O2          0.56237      0.59685      0.34615  1.0000
  O2          0.02676      0.45025      0.01816  1.0000
  O2          0.39965      0.96426      0.67927  1.0000
  O2          0.43389      0.41996      0.84182  1.0000
  O2          0.97334      0.55997      0.51007  1.0000
  O2          0.59151      0.03165      0.17862  1.0000
  O2          0.59280      0.17291      0.25131  1.0000
  O2          0.82908      0.41383      0.58302  1.0000
  O2          0.57473      0.41740      0.91359  1.0000
  O2          0.40217      0.82941      0.75390  1.0000
  O2          0.16240      0.58646      0.09002  1.0000
  O2          0.41990      0.58936      0.42073  1.0000
  F           0.45379      0.90463      0.25465  1.0000
  F           0.09114      0.54658      0.58576  1.0000
  F           0.40957      0.50732      0.92283  1.0000
  F           0.53569      0.09141      0.75336  1.0000
  F           0.87131      0.43025      0.09667  1.0000
  F           0.55046      0.45830      0.42014  1.0000
