data_cif

_audit_creation_method             'generated by GULP'

_symmetry_space_group_name_H-M     'P 1'
_symmetry_Int_Tables_number        1
_symmetry_cell_setting             triclinic

_cell_length_a                       12.0979
_cell_length_b                       12.0737
_cell_length_c                       30.0446
_cell_angle_alpha                   89.9970
_cell_angle_beta                    89.9650
_cell_angle_gamma                  119.9666

loop_
_atom_site_label
_atom_site_fract_x
_atom_site_fract_y
_atom_site_fract_z
_atom_site_occupancy
  Si          0.69960      0.37570      0.03389  1.0000
  Ge          0.61725      0.30012      0.38061  1.0000
  Si          0.65998      0.27953      0.71123  1.0000
  Si          0.28799      0.61617      0.55299  1.0000
  Si          0.37099      0.66555      0.87444  1.0000
  Ge          0.30868      0.67904      0.20347  1.0000
  Ge          0.36401      0.67828      0.30558  1.0000
  Si          0.31868      0.60907      0.97317  1.0000
  Si          0.28150      0.66590      0.65159  1.0000
  Si          0.60821      0.28477      0.80991  1.0000
  Ge          0.67573      0.35944      0.48230  1.0000
  Si          0.69598      0.32114      0.13255  1.0000
  Si          0.52228      0.40885      0.97140  1.0000
  Ge          0.59567      0.11104      0.30547  1.0000
  Si          0.87465      0.45327      0.64955  1.0000
  Ge          0.44161      0.56115      0.48485  1.0000
  Si          0.40737      0.87907      0.81311  1.0000
  Si          0.10019      0.51068      0.13496  1.0000
  Ge          0.39464      0.51351      0.37979  1.0000
  Si          0.10560      0.56988      0.03541  1.0000
  Si          0.45794      0.87759      0.71337  1.0000
  Si          0.57194      0.46141      0.87154  1.0000
  Si          0.88526      0.40276      0.55013  1.0000
  Ge          0.54396      0.11182      0.20096  1.0000
  Si          0.29344      0.38953      0.85904  1.0000
  Ge          0.59905      0.88173      0.19064  1.0000
  Si          0.08330      0.68467      0.53687  1.0000
  Ge          0.68500      0.58595      0.36342  1.0000
  Si          0.38321      0.08140      0.69806  1.0000
  Si          0.89539      0.29311      0.02049  1.0000
  Ge          0.38750      0.27689      0.49825  1.0000
  Si          0.90177      0.59408      0.14851  1.0000
  Si          0.68610      0.08647      0.82534  1.0000
  Si          0.59546      0.68745      0.98599  1.0000
  Si          0.08544      0.38769      0.66488  1.0000
  Ge          0.30580      0.89923      0.32536  1.0000
  Si          0.24478      0.32974      0.95798  1.0000
  Ge          0.65475      0.88985      0.29222  1.0000
  Si          0.07107      0.73267      0.63572  1.0000
  Ge          0.73305      0.64625      0.46656  1.0000
  Si          0.32879      0.07774      0.79727  1.0000
  Si          0.89277      0.23578      0.11930  1.0000
  Ge          0.33448      0.23462      0.39770  1.0000
  Si          0.90967      0.65340      0.04970  1.0000
  Si          0.73528      0.07546      0.72643  1.0000
  Si          0.65039      0.73879      0.88692  1.0000
  Si          0.09093      0.33400      0.56617  1.0000
  Ge          0.25467      0.90813      0.22215  1.0000
  Si          0.96494      0.11319      0.97180  1.0000
  Ge          0.87394      0.82608      0.30643  1.0000
  Si          0.13254      0.01013      0.64985  1.0000
  Ge          0.01541      0.86695      0.48510  1.0000
  Si          0.11218      0.14036      0.81101  1.0000
  Si          0.84100      0.95783      0.13367  1.0000
  Ge          0.11513      0.95052      0.37985  1.0000
  Si          0.84527      0.86826      0.03446  1.0000
  Si          0.01468      0.13734      0.71268  1.0000
  Si          0.86719      0.01864      0.87339  1.0000
  Si          0.14464      0.10940      0.55158  1.0000
  Ge          0.96821      0.84576      0.19985  1.0000
  O2          0.92336      0.99044      0.00280  1.0000
  O1          0.01118      0.88782      0.33587  1.0000
  O2          0.05587      0.05782      0.68055  1.0000
  O3          0.06479      0.00554      0.51415  1.0000
  O2          0.98954      0.06143      0.84214  1.0000
  O3          0.93749      0.93745      0.16377  1.0000
  O1          0.31295      0.55530      0.34365  1.0000
  O2          0.40405      0.74976      0.68309  1.0000
  O2          0.23302      0.64570      0.00500  1.0000
  O2          0.64650      0.41028      0.84019  1.0000
  O3          0.57943      0.24044      0.16561  1.0000
  O3          0.76695      0.32338      0.51801  1.0000
  O2          0.57701      0.33654      0.00215  1.0000
  O2          0.74631      0.40175      0.67934  1.0000
  O1          0.67357      0.23512      0.34201  1.0000
  O3          0.40514      0.65373      0.52012  1.0000
  O3          0.21930      0.55237      0.16695  1.0000
  O2          0.33272      0.75319      0.84432  1.0000
  O2          0.11814      0.20375      0.97679  1.0000
  O1          0.78304      0.89305      0.31930  1.0000
  O2          0.06947      0.85693      0.65611  1.0000
  O1          0.85543      0.77601      0.49302  1.0000
  O2          0.20366      0.07889      0.81660  1.0000
  O2          0.88732      0.10893      0.13869  1.0000
  O1          0.19400      0.11035      0.37491  1.0000
  O2          0.90997      0.77905      0.02984  1.0000
  O2          0.86166      0.07554      0.70766  1.0000
  O2          0.77565      0.86559      0.86781  1.0000
  O2          0.09414      0.21077      0.54736  1.0000
  O1          0.12932      0.91867      0.19965  1.0000
  O1          0.91058      0.84918      0.25104  1.0000
  O2          0.11416      0.04151      0.59960  1.0000
  O2          0.92213      0.05908      0.92258  1.0000
  O2          0.05753      0.12396      0.76161  1.0000
  O2          0.85721      0.92208      0.08349  1.0000
  O1          0.03467      0.89371      0.42887  1.0000
  O2          0.89662      0.19532      0.98351  1.0000
  O1          0.78192      0.66687      0.31931  1.0000
  O2          0.28340      0.07920      0.66114  1.0000
  O3          0.09039      0.78155      0.49901  1.0000
  O2          0.19392      0.29129      0.82223  1.0000
  O3          0.69767      0.87330      0.14885  1.0000
  O1          0.22217      0.89787      0.37159  1.0000
  O2          0.69497      0.78487      0.02273  1.0000
  O2          0.08355      0.28838      0.70181  1.0000
  O2          0.78561      0.08787      0.86205  1.0000
  O3          0.29244      0.17678      0.54203  1.0000
  O3          0.89992      0.68497      0.18674  1.0000
  O1          0.32921      0.61585      0.25241  1.0000
  O2          0.34178      0.67105      0.60256  1.0000
  O2          0.31663      0.66552      0.92409  1.0000
  O2          0.66219      0.33876      0.76017  1.0000
  O2          0.64029      0.32124      0.08312  1.0000
  O1          0.64990      0.27175      0.43424  1.0000
  O2          0.36741      0.32062      0.97539  1.0000
  O1          0.69185      0.04561      0.29877  1.0000
  O2          0.94036      0.60841      0.65251  1.0000
  O1          0.60196      0.62561      0.49471  1.0000
  O2          0.32045      0.94739      0.81587  1.0000
  O2          0.02367      0.35530      0.13830  1.0000
  O1          0.29847      0.35215      0.38673  1.0000
  O2          0.04013      0.65956      0.03254  1.0000
  O2          0.61260      0.94379      0.70905  1.0000
  O2          0.65895      0.61670      0.86845  1.0000
  O2          0.96121      0.32357      0.54666  1.0000
  O1          0.38266      0.01928      0.19255  1.0000
  O2          0.76565      0.29876      0.01242  1.0000
  O1          0.70998      0.45949      0.36878  1.0000
  O2          0.51730      0.21298      0.68950  1.0000
  O2          0.21625      0.68516      0.53022  1.0000
  O2          0.29481      0.52362      0.85207  1.0000
  O1          0.45069      0.76285      0.17509  1.0000
  O1          0.27226      0.74444      0.31963  1.0000
  O2          0.46156      0.68503      0.99461  1.0000
  O2          0.21499      0.52300      0.67314  1.0000
  O2          0.68449      0.21906      0.83212  1.0000
  O1          0.53668      0.30746      0.51225  1.0000
  O2          0.76799      0.46200      0.15530  1.0000
  O2          0.78404      0.53043      0.02997  1.0000
  O1          0.45628      0.23189      0.36838  1.0000
  O2          0.73415      0.19880      0.70624  1.0000
  O2          0.21614      0.46039      0.54797  1.0000
  O2          0.52529      0.73894      0.86835  1.0000
  O1          0.22340      0.75521      0.21220  1.0000
  O1          0.52382      0.77078      0.31935  1.0000
  O2          0.24568      0.45419      0.97805  1.0000
  O2          0.19654      0.73551      0.65548  1.0000
  O2          0.45393      0.20316      0.81570  1.0000
  O1          0.75973      0.52034      0.47274  1.0000
  O2          0.76814      0.23766      0.13764  1.0000
  O2          0.22618      0.31508      0.90470  1.0000
  O1          0.66260      0.85184      0.23737  1.0000
  O2          0.07393      0.75339      0.58232  1.0000
  O1          0.73228      0.67995      0.41088  1.0000
  O2          0.31166      0.07842      0.74394  1.0000
  O2          0.89475      0.22123      0.06589  1.0000
  O1          0.31986      0.18131      0.45221  1.0000
  O2          0.90898      0.67153      0.10311  1.0000
  O2          0.75361      0.07952      0.77970  1.0000
  O2          0.66719      0.75642      0.94018  1.0000
  O2          0.08780      0.31701      0.61955  1.0000
  O1          0.25734      0.94375      0.27778  1.0000
  O2          0.57991      0.54847      0.99443  1.0000
  O1          0.46298      0.00473      0.33561  1.0000
  O2          0.95988      0.39975      0.67274  1.0000
  O1          0.36107      0.40381      0.49977  1.0000
  O2          0.54773      0.96389      0.83521  1.0000
  O2          0.02555      0.57857      0.15693  1.0000
  O1          0.53093      0.54290      0.35105  1.0000
  O2          0.02049      0.43098      0.01226  1.0000
  O2          0.39920      0.95812      0.68979  1.0000
  O2          0.43171      0.40506      0.84922  1.0000
  O2          0.95901      0.54568      0.52800  1.0000
  O1          0.62388      0.03402      0.18634  1.0000
  O1          0.57335      0.16664      0.25539  1.0000
  O2          0.82789      0.40004      0.59948  1.0000
  O2          0.57242      0.40877      0.92127  1.0000
  O2          0.40741      0.82670      0.76335  1.0000
  O2          0.15470      0.56424      0.08520  1.0000
  O1          0.41722      0.59007      0.43049  1.0000
  F           0.46194      0.88581      0.25341  1.0000
  F           0.08649      0.53733      0.59967  1.0000
  F           0.44373      0.53808      0.92257  1.0000
  F           0.53591      0.08430      0.76117  1.0000
  F           0.89512      0.44265      0.08533  1.0000
  F           0.51441      0.40735      0.43163  1.0000
