data_cif

_audit_creation_method             'generated by GULP'

_symmetry_space_group_name_H-M     'P 1'
_symmetry_Int_Tables_number        1
_symmetry_cell_setting             triclinic

_cell_length_a                       12.1192
_cell_length_b                       12.1624
_cell_length_c                       29.9641
_cell_angle_alpha                   89.6216
_cell_angle_beta                    91.4095
_cell_angle_gamma                  120.2043

loop_
_atom_site_label
_atom_site_fract_x
_atom_site_fract_y
_atom_site_fract_z
_atom_site_occupancy
  Si          0.69960      0.37570      0.03389  1.0000
  Si          0.62172      0.31949      0.35736  1.0000
  Ge          0.70029      0.30733      0.69055  1.0000
  Si          0.32191      0.62948      0.51934  1.0000
  Ge          0.34999      0.67968      0.86617  1.0000
  Si          0.32079      0.69892      0.19630  1.0000
  Si          0.38233      0.70175      0.29548  1.0000
  Si          0.31027      0.61809      0.96934  1.0000
  Ge          0.28867      0.65574      0.61638  1.0000
  Ge          0.64370      0.31415      0.79047  1.0000
  Si          0.68454      0.38164      0.45577  1.0000
  Si          0.70172      0.31533      0.13240  1.0000
  Si          0.52907      0.40861      0.96449  1.0000
  Si          0.58391      0.10614      0.29561  1.0000
  Si          0.90560      0.47070      0.62137  1.0000
  Si          0.48217      0.58076      0.45546  1.0000
  Ge          0.41143      0.89033      0.79475  1.0000
  Si          0.10521      0.51855      0.13467  1.0000
  Si          0.42091      0.52327      0.35569  1.0000
  Si          0.10614      0.57587      0.03484  1.0000
  Ge          0.44493      0.86618      0.68966  1.0000
  Ge          0.57600      0.45687      0.86075  1.0000
  Si          0.90089      0.42553      0.51958  1.0000
  Si          0.52759      0.10491      0.19514  1.0000
  Ge          0.29647      0.40824      0.85505  1.0000
  Si          0.59611      0.89775      0.18318  1.0000
  Si          0.11762      0.70674      0.50785  1.0000
  Si          0.69794      0.59440      0.34184  1.0000
  Ge          0.41084      0.10988      0.67555  1.0000
  Si          0.89716      0.29936      0.01883  1.0000
  Si          0.41053      0.30470      0.47199  1.0000
  Si          0.90160      0.59140      0.14915  1.0000
  Ge          0.70696      0.10026      0.80944  1.0000
  Si          0.59386      0.69285      0.97959  1.0000
  Si          0.10755      0.38281      0.63489  1.0000
  Si          0.30666      0.90017      0.30901  1.0000
  Ge          0.24264      0.33239      0.95328  1.0000
  Si          0.66114      0.90746      0.28230  1.0000
  Si          0.10791      0.75565      0.60874  1.0000
  Si          0.75740      0.65765      0.44078  1.0000
  Ge          0.35127      0.11218      0.77589  1.0000
  Si          0.90666      0.24156      0.11760  1.0000
  Si          0.34373      0.24798      0.37265  1.0000
  Si          0.90740      0.65156      0.05025  1.0000
  Ge          0.74106      0.07452      0.70626  1.0000
  Ge          0.64280      0.74487      0.87776  1.0000
  Si          0.10311      0.34759      0.53223  1.0000
  Si          0.25068      0.90570      0.20961  1.0000
  Ge          0.96162      0.11170      0.97336  1.0000
  Si          0.87802      0.84346      0.29496  1.0000
  Ge          0.15455      0.02991      0.62313  1.0000
  Si          0.03766      0.87521      0.45647  1.0000
  Ge          0.11876      0.16157      0.79818  1.0000
  Si          0.84055      0.96073      0.13430  1.0000
  Si          0.12834      0.96801      0.35763  1.0000
  Si          0.83772      0.86117      0.03622  1.0000
  Ge          0.01872      0.13004      0.69167  1.0000
  Ge          0.88225      0.02762      0.86623  1.0000
  Ge          0.15733      0.12784      0.51999  1.0000
  Si          0.96958      0.84142      0.19657  1.0000
  O3          0.91951      0.98648      0.00931  1.0000
  O2          0.00200      0.92194      0.32688  1.0000
  O1          0.07734      0.04446      0.66772  1.0000
  O3          0.07248      0.99260      0.48799  1.0000
  O1          0.01167      0.06118      0.83704  1.0000
  O2          0.92388      0.92048      0.16573  1.0000
  O2          0.34490      0.57597      0.32528  1.0000
  O1          0.40961      0.74013      0.65694  1.0000
  O2          0.23222      0.65326      0.00488  1.0000
  O1          0.67734      0.43480      0.82875  1.0000
  O2          0.57957      0.22958      0.16350  1.0000
  O2          0.77529      0.34957      0.48769  1.0000
  O2          0.58031      0.34248      0.00034  1.0000
  O3          0.78851      0.43004      0.65238  1.0000
  O2          0.65807      0.23342      0.32658  1.0000
  O2          0.43392      0.65969      0.48447  1.0000
  O2          0.23350      0.57254      0.16601  1.0000
  O1          0.31876      0.77740      0.83400  1.0000
  O1          0.12181      0.20804      0.98156  1.0000
  O2          0.78835      0.90619      0.30069  1.0000
  O3          0.08309      0.86547      0.62384  1.0000
  O2          0.88499      0.78213      0.45963  1.0000
  O1          0.21822      0.10073      0.79805  1.0000
  O2          0.90595      0.11465      0.13605  1.0000
  O2          0.21739      0.12108      0.35325  1.0000
  O2          0.90501      0.77568      0.03167  1.0000
  O1          0.85940      0.05878      0.68081  1.0000
  O1          0.77038      0.87194      0.85469  1.0000
  O3          0.10092      0.23062      0.50744  1.0000
  O2          0.12241      0.90419      0.19090  1.0000
  O2          0.93164      0.85678      0.24588  1.0000
  O1          0.12159      0.08033      0.57354  1.0000
  O1          0.91772      0.04225      0.92257  1.0000
  O1          0.03706      0.13856      0.74808  1.0000
  O2          0.83890      0.90538      0.08633  1.0000
  O2          0.08067      0.92873      0.40731  1.0000
  O3          0.89070      0.20388      0.98094  1.0000
  O2          0.79441      0.69278      0.30511  1.0000
  O1          0.31412      0.10723      0.63046  1.0000
  O2          0.11119      0.79928      0.46994  1.0000
  O1          0.19046      0.31565      0.81112  1.0000
  O2          0.69264      0.89680      0.14693  1.0000
  O2          0.21013      0.90122      0.34553  1.0000
  O2          0.68982      0.77832      0.01989  1.0000
  O3          0.10134      0.28206      0.66994  1.0000
  O1          0.81342      0.11557      0.85172  1.0000
  O3          0.31969      0.21019      0.50994  1.0000
  O2          0.90229      0.69049      0.18573  1.0000
  O2          0.32361      0.64561      0.24599  1.0000
  O3          0.38418      0.68086      0.56740  1.0000
  O3          0.31389      0.68454      0.92258  1.0000
  O1          0.68847      0.38108      0.73793  1.0000
  O2          0.64309      0.31700      0.08283  1.0000
  O2          0.68201      0.32219      0.40694  1.0000
  O3          0.37849      0.33160      0.97191  1.0000
  O2          0.67142      0.03893      0.29995  1.0000
  O2          0.98378      0.62399      0.62431  1.0000
  O2          0.63741      0.66721      0.45909  1.0000
  O1          0.32219      0.95983      0.78308  1.0000
  O2          0.03794      0.36377      0.13688  1.0000
  O2          0.33374      0.36839      0.35353  1.0000
  O2          0.03665      0.66103      0.03150  1.0000
  O1          0.60622      0.96799      0.67907  1.0000
  O1          0.66263      0.62089      0.86563  1.0000
  O2          0.97226      0.34401      0.51715  1.0000
  O2          0.37201      0.03638      0.19163  1.0000
  O2          0.76573      0.30240      0.01163  1.0000
  O2          0.69494      0.46055      0.33494  1.0000
  O1          0.55925      0.22428      0.65992  1.0000
  O2          0.24809      0.70378      0.50059  1.0000
  O1          0.26390      0.53108      0.84435  1.0000
  O2          0.46208      0.76599      0.17475  1.0000
  O2          0.30881      0.76897      0.31741  1.0000
  O2          0.45522      0.67532      0.98945  1.0000
  O3          0.23825      0.50940      0.64534  1.0000
  O1          0.73806      0.25435      0.80836  1.0000
  O2          0.54556      0.30758      0.47877  1.0000
  O2          0.76985      0.45680      0.15519  1.0000
  O2          0.77966      0.52972      0.03064  1.0000
  O2          0.46668      0.24663      0.35367  1.0000
  O1          0.78615      0.23189      0.69693  1.0000
  O2          0.22691      0.47594      0.51625  1.0000
  O1          0.51113      0.74306      0.85544  1.0000
  O2          0.24882      0.78103      0.19031  1.0000
  O2          0.53732      0.78374      0.30167  1.0000
  O3          0.23701      0.46682      0.96867  1.0000
  O3          0.23465      0.76727      0.62948  1.0000
  O1          0.48392      0.22597      0.80429  1.0000
  O2          0.76101      0.53565      0.46048  1.0000
  O2          0.78235      0.24139      0.13615  1.0000
  O1          0.20837      0.29969      0.89801  1.0000
  O2          0.67269      0.90395      0.22895  1.0000
  O2          0.11831      0.77307      0.55411  1.0000
  O2          0.76965      0.67044      0.38729  1.0000
  O1          0.35342      0.15288      0.72040  1.0000
  O2          0.90540      0.22717      0.06390  1.0000
  O2          0.33071      0.23334      0.42639  1.0000
  O2          0.90890      0.66660      0.10368  1.0000
  O1          0.74807      0.04864      0.76272  1.0000
  O3          0.64909      0.77259      0.93539  1.0000
  O2          0.10612      0.32397      0.58542  1.0000
  O2          0.23585      0.90380      0.26301  1.0000
  O2          0.58735      0.55781      0.97704  1.0000
  O2          0.44539      0.02391      0.31822  1.0000
  O2          0.98604      0.40493      0.63959  1.0000
  O2          0.42603      0.44349      0.47982  1.0000
  O1          0.55278      0.99340      0.82297  1.0000
  O2          0.02333      0.57346      0.15842  1.0000
  O2          0.55828      0.57694      0.33252  1.0000
  O2          0.02279      0.43714      0.01109  1.0000
  O1          0.37266      0.95492      0.67953  1.0000
  O1          0.42980      0.40365      0.83547  1.0000
  O2          0.99373      0.56718      0.50128  1.0000
  O2          0.58223      0.02084      0.17318  1.0000
  O2          0.58184      0.15676      0.24539  1.0000
  O2          0.85692      0.42656      0.56984  1.0000
  O3          0.56407      0.39214      0.91496  1.0000
  O1          0.43021      0.82646      0.74643  1.0000
  O2          0.15692      0.57310      0.08522  1.0000
  O2          0.42675      0.57727      0.40546  1.0000
  F           0.45241      0.89953      0.24603  1.0000
  F           0.14606      0.57297      0.57926  1.0000
  F           0.41326      0.51854      0.90336  1.0000
  F           0.56424      0.12789      0.74132  1.0000
  F           0.89962      0.44351      0.08347  1.0000
  F           0.55498      0.44872      0.40755  1.0000
