data_cif

_audit_creation_method             'generated by GULP'

_symmetry_space_group_name_H-M     'P 1'
_symmetry_Int_Tables_number        1
_symmetry_cell_setting             triclinic

_cell_length_a                       12.1047
_cell_length_b                       12.0416
_cell_length_c                       29.9863
_cell_angle_alpha                   89.2499
_cell_angle_beta                    90.3730
_cell_angle_gamma                  119.8592

loop_
_atom_site_label
_atom_site_fract_x
_atom_site_fract_y
_atom_site_fract_z
_atom_site_occupancy
  Si          0.69960      0.37570      0.03389  1.0000
  Ge          0.60212      0.28874      0.37853  1.0000
  Si          0.65674      0.28722      0.71061  1.0000
  Si          0.30150      0.62642      0.55128  1.0000
  Si          0.37014      0.67227      0.87642  1.0000
  Ge          0.30024      0.67610      0.20518  1.0000
  Ge          0.36047      0.68029      0.30726  1.0000
  Si          0.31904      0.61120      0.97527  1.0000
  Si          0.28108      0.67629      0.65152  1.0000
  Si          0.60720      0.29355      0.80954  1.0000
  Ge          0.65870      0.33964      0.48007  1.0000
  Si          0.69241      0.31948      0.13318  1.0000
  Si          0.52224      0.41075      0.97159  1.0000
  Ge          0.58428      0.10428      0.30337  1.0000
  Si          0.86806      0.46090      0.64671  1.0000
  Ge          0.44559      0.55200      0.48678  1.0000
  Si          0.40593      0.88708      0.81463  1.0000
  Si          0.09374      0.50576      0.13731  1.0000
  Ge          0.38749      0.51040      0.38207  1.0000
  Si          0.10532      0.56881      0.03751  1.0000
  Si          0.45420      0.88532      0.71466  1.0000
  Si          0.57075      0.46796      0.87157  1.0000
  Si          0.87441      0.40086      0.54573  1.0000
  Ge          0.52814      0.10536      0.19926  1.0000
  Si          0.29274      0.39705      0.86014  1.0000
  Ge          0.58753      0.87778      0.18833  1.0000
  Ge          0.08548      0.67524      0.54230  1.0000
  Ge          0.67593      0.57903      0.36370  1.0000
  Si          0.37972      0.08992      0.69854  1.0000
  Si          0.89496      0.29295      0.02254  1.0000
  Ge          0.37417      0.26239      0.49713  1.0000
  Si          0.89762      0.59303      0.14906  1.0000
  Si          0.68489      0.09412      0.82638  1.0000
  Si          0.59619      0.68960      0.98755  1.0000
  Si          0.08191      0.39424      0.66401  1.0000
  Ge          0.29419      0.89738      0.32547  1.0000
  Si          0.24468      0.33177      0.95909  1.0000
  Ge          0.65096      0.88846      0.28993  1.0000
  Si          0.06644      0.74582      0.63584  1.0000
  Ge          0.73570      0.63482      0.46652  1.0000
  Si          0.32732      0.08672      0.79796  1.0000
  Si          0.88779      0.23064      0.12154  1.0000
  Ge          0.32010      0.22713      0.39634  1.0000
  Si          0.90909      0.65200      0.04964  1.0000
  Si          0.73108      0.08237      0.72733  1.0000
  Si          0.64907      0.74480      0.88814  1.0000
  Si          0.09018      0.33939      0.56420  1.0000
  Ge          0.23965      0.90326      0.22178  1.0000
  Si          0.96509      0.11527      0.97346  1.0000
  Ge          0.86703      0.81774      0.30541  1.0000
  Si          0.12780      0.01885      0.65203  1.0000
  Ge          0.01634      0.86108      0.48802  1.0000
  Si          0.11066      0.14920      0.81263  1.0000
  Si          0.83216      0.94990      0.13528  1.0000
  Ge          0.10330      0.94438      0.38128  1.0000
  Si          0.84601      0.86819      0.03626  1.0000
  Si          0.00972      0.14468      0.71432  1.0000
  Si          0.86594      0.02496      0.87490  1.0000
  Si          0.13126      0.10390      0.55170  1.0000
  Si          0.95930      0.83736      0.20093  1.0000
  O2          0.92380      0.99243      0.00501  1.0000
  O1          0.99647      0.87054      0.33852  1.0000
  O2          0.05286      0.06651      0.68319  1.0000
  O3          0.04228      0.99515      0.51772  1.0000
  O2          0.98928      0.06903      0.84418  1.0000
  O2          0.91454      0.91728      0.16975  1.0000
  O1          0.30900      0.56045      0.34714  1.0000
  O2          0.40028      0.75763      0.68439  1.0000
  O2          0.23383      0.64587      0.00765  1.0000
  O2          0.64530      0.41891      0.83950  1.0000
  O3          0.57131      0.23825      0.16422  1.0000
  O3          0.75216      0.30757      0.51743  1.0000
  O2          0.57744      0.33672      0.00178  1.0000
  O2          0.74141      0.40760      0.67726  1.0000
  O1          0.66105      0.22920      0.33952  1.0000
  O3          0.42328      0.65090      0.52403  1.0000
  O3          0.21009      0.54582      0.17038  1.0000
  O2          0.33155      0.76141      0.84642  1.0000
  O2          0.11841      0.20474      0.97774  1.0000
  O1          0.78426      0.89518      0.31460  1.0000
  O2          0.06722      0.86625      0.66074  1.0000
  O1          0.85528      0.75842      0.49434  1.0000
  O2          0.20282      0.08793      0.81749  1.0000
  O2          0.88274      0.10235      0.14107  1.0000
  O1          0.18147      0.10425      0.37248  1.0000
  O2          0.91035      0.77930      0.02989  1.0000
  O2          0.85721      0.08224      0.70877  1.0000
  O2          0.77385      0.87226      0.86883  1.0000
  O2          0.09306      0.21583      0.54633  1.0000
  O3          0.11011      0.90847      0.19811  1.0000
  O3          0.91532      0.83559      0.25072  1.0000
  O2          0.10426      0.04924      0.60216  1.0000
  O2          0.91970      0.06181      0.92434  1.0000
  O2          0.05319      0.13434      0.76360  1.0000
  O2          0.86028      0.91882      0.08600  1.0000
  O1          0.02929      0.89675      0.43125  1.0000
  O2          0.89755      0.19742      0.98530  1.0000
  O1          0.76538      0.65964      0.31783  1.0000
  O2          0.27968      0.08931      0.66185  1.0000
  O1          0.09946      0.78881      0.50093  1.0000
  O2          0.19243      0.30019      0.82333  1.0000
  O3          0.68555      0.87160      0.14584  1.0000
  O1          0.21355      0.89520      0.37223  1.0000
  O2          0.69564      0.78549      0.02449  1.0000
  O2          0.07746      0.29582      0.70199  1.0000
  O2          0.78509      0.09560      0.86315  1.0000
  O3          0.27687      0.16018      0.54037  1.0000
  O2          0.89775      0.68828      0.18653  1.0000
  O1          0.32446      0.61567      0.25446  1.0000
  O2          0.33892      0.67804      0.60273  1.0000
  O2          0.31622      0.67011      0.92624  1.0000
  O2          0.66004      0.34736      0.75935  1.0000
  O2          0.63991      0.32185      0.08314  1.0000
  O1          0.63126      0.25275      0.43212  1.0000
  O2          0.36776      0.32203      0.97583  1.0000
  O1          0.68397      0.04287      0.29717  1.0000
  O2          0.93524      0.61568      0.65024  1.0000
  O1          0.60374      0.60935      0.49560  1.0000
  O2          0.31938      0.95591      0.81686  1.0000
  O2          0.01818      0.34997      0.14050  1.0000
  O1          0.28740      0.34844      0.38703  1.0000
  O2          0.04025      0.65909      0.03339  1.0000
  O2          0.60850      0.95129      0.70988  1.0000
  O2          0.65741      0.62360      0.86888  1.0000
  O2          0.96069      0.33097      0.54576  1.0000
  O1          0.36589      0.01747      0.19185  1.0000
  O2          0.76582      0.29872      0.01300  1.0000
  O1          0.69683      0.44973      0.36852  1.0000
  O2          0.51404      0.22063      0.68915  1.0000
  O3          0.23696      0.69646      0.52631  1.0000
  O2          0.29367      0.53155      0.85346  1.0000
  O1          0.43921      0.75679      0.17485  1.0000
  O1          0.26597      0.74424      0.31952  1.0000
  O2          0.46222      0.68642      0.99631  1.0000
  O2          0.20958      0.53047      0.67117  1.0000
  O2          0.68384      0.22751      0.83196  1.0000
  O1          0.52129      0.28517      0.51075  1.0000
  O2          0.76421      0.46048      0.15597  1.0000
  O2          0.78470      0.53055      0.02893  1.0000
  O1          0.44184      0.22572      0.36672  1.0000
  O2          0.73217      0.20735      0.70652  1.0000
  O2          0.21392      0.46889      0.54772  1.0000
  O2          0.52415      0.74670      0.86998  1.0000
  O1          0.21441      0.75247      0.21245  1.0000
  O1          0.52173      0.77179      0.31879  1.0000
  O2          0.24666      0.45590      0.97960  1.0000
  O2          0.19081      0.73948      0.65373  1.0000
  O2          0.45336      0.21177      0.81568  1.0000
  O1          0.74907      0.49977      0.46920  1.0000
  O2          0.76454      0.23559      0.13933  1.0000
  O2          0.22571      0.31982      0.90568  1.0000
  O1          0.65534      0.85110      0.23503  1.0000
  O3          0.07090      0.77473      0.58410  1.0000
  O1          0.72974      0.67222      0.41095  1.0000
  O2          0.30968      0.08792      0.74457  1.0000
  O2          0.89062      0.21726      0.06801  1.0000
  O1          0.30146      0.16984      0.45098  1.0000
  O2          0.90443      0.66757      0.10288  1.0000
  O2          0.75048      0.08572      0.78063  1.0000
  O2          0.66674      0.76014      0.94151  1.0000
  O2          0.08655      0.33000      0.61804  1.0000
  O1          0.24442      0.94041      0.27713  1.0000
  O2          0.57985      0.54942      0.99508  1.0000
  O1          0.45239      0.00152      0.33454  1.0000
  O2          0.95941      0.41173      0.66817  1.0000
  O1          0.35635      0.39474      0.50207  1.0000
  O2          0.54630      0.97229      0.83650  1.0000
  O2          0.01890      0.57426      0.15840  1.0000
  O1          0.52184      0.53896      0.35281  1.0000
  O2          0.02161      0.43006      0.01445  1.0000
  O2          0.39390      0.96507      0.69074  1.0000
  O2          0.43032      0.41238      0.84946  1.0000
  O3          0.94442      0.53913      0.52207  1.0000
  O1          0.60595      0.02760      0.18234  1.0000
  O1          0.56117      0.16094      0.25327  1.0000
  O2          0.82688      0.41021      0.59638  1.0000
  O2          0.57162      0.41277      0.92118  1.0000
  O2          0.40519      0.83415      0.76494  1.0000
  O2          0.15185      0.56185      0.08782  1.0000
  O1          0.41461      0.58397      0.43329  1.0000
  F           0.45497      0.88611      0.25201  1.0000
  F           0.08368      0.57037      0.58916  1.0000
  F           0.44298      0.54235      0.92302  1.0000
  F           0.53399      0.09200      0.76101  1.0000
  F           0.89352      0.44012      0.08567  1.0000
  F           0.49892      0.39282      0.43254  1.0000
