data_cif

_audit_creation_method             'generated by GULP'

_symmetry_space_group_name_H-M     'P 1'
_symmetry_Int_Tables_number        1
_symmetry_cell_setting             triclinic

_cell_length_a                       12.0657
_cell_length_b                       12.1147
_cell_length_c                       29.9907
_cell_angle_alpha                   90.5962
_cell_angle_beta                    89.1872
_cell_angle_gamma                  120.1984

loop_
_atom_site_label
_atom_site_fract_x
_atom_site_fract_y
_atom_site_fract_z
_atom_site_occupancy
  Si          0.69960      0.37570      0.03389  1.0000
  Ge          0.64277      0.31070      0.37824  1.0000
  Si          0.67268      0.27913      0.71026  1.0000
  Si          0.30677      0.61957      0.55349  1.0000
  Si          0.37967      0.67305      0.87640  1.0000
  Ge          0.33219      0.68279      0.20674  1.0000
  Ge          0.39105      0.68770      0.30843  1.0000
  Si          0.32983      0.61185      0.97505  1.0000
  Si          0.29434      0.66530      0.65264  1.0000
  Si          0.62078      0.29131      0.80895  1.0000
  Ge          0.70043      0.36787      0.48053  1.0000
  Ge          0.72630      0.34220      0.13054  1.0000
  Si          0.53417      0.41607      0.96857  1.0000
  Ge          0.63001      0.12339      0.30315  1.0000
  Si          0.88887      0.45177      0.64798  1.0000
  Ge          0.47015      0.56998      0.48671  1.0000
  Si          0.41677      0.88572      0.81532  1.0000
  Si          0.11171      0.51415      0.14091  1.0000
  Ge          0.41887      0.52202      0.38153  1.0000
  Si          0.11685      0.57124      0.03985  1.0000
  Si          0.46732      0.87673      0.71538  1.0000
  Si          0.58421      0.47165      0.86887  1.0000
  Si          0.90619      0.40498      0.54836  1.0000
  Ge          0.58115      0.12270      0.19726  1.0000
  Si          0.30375      0.39846      0.85868  1.0000
  Ge          0.62026      0.88220      0.19598  1.0000
  Si          0.10277      0.68877      0.53709  1.0000
  Ge          0.71015      0.59635      0.36139  1.0000
  Si          0.39420      0.08019      0.69884  1.0000
  Si          0.89941      0.28943      0.02585  1.0000
  Ge          0.41066      0.28347      0.49923  1.0000
  Si          0.91369      0.60777      0.15598  1.0000
  Si          0.69686      0.09408      0.82644  1.0000
  Si          0.60863      0.69292      0.98667  1.0000
  Si          0.09892      0.38605      0.66362  1.0000
  Ge          0.33790      0.91358      0.32586  1.0000
  Si          0.25484      0.33422      0.95756  1.0000
  Ge          0.68605      0.89900      0.29537  1.0000
  Si          0.08496      0.73215      0.63650  1.0000
  Ge          0.76271      0.65673      0.46492  1.0000
  Si          0.33981      0.08376      0.79821  1.0000
  Si          0.90237      0.23146      0.12662  1.0000
  Ge          0.35954      0.24528      0.39813  1.0000
  Si          0.91899      0.65640      0.05387  1.0000
  Si          0.74614      0.07592      0.72749  1.0000
  Si          0.66093      0.74707      0.88719  1.0000
  Si          0.11073      0.33479      0.56448  1.0000
  Ge          0.28796      0.91886      0.22218  1.0000
  Si          0.97487      0.11511      0.97378  1.0000
  Ge          0.90620      0.84057      0.30938  1.0000
  Si          0.14477      0.00913      0.65015  1.0000
  Si          0.04086      0.87073      0.48609  1.0000
  Si          0.12357      0.14834      0.81153  1.0000
  Si          0.86258      0.95963      0.13698  1.0000
  Ge          0.14529      0.95939      0.38358  1.0000
  Si          0.85878      0.87156      0.03633  1.0000
  Si          0.02620      0.13751      0.71289  1.0000
  Si          0.87679      0.02763      0.87462  1.0000
  Si          0.16451      0.10949      0.55167  1.0000
  Ge          0.00582      0.87064      0.20342  1.0000
  O2          0.93795      0.99162      0.00355  1.0000
  O1          0.03023      0.87883      0.34416  1.0000
  O2          0.06692      0.05525      0.68159  1.0000
  O2          0.08815      0.99772      0.51564  1.0000
  O2          0.00132      0.07194      0.84368  1.0000
  O3          0.96950      0.94802      0.16408  1.0000
  O1          0.33719      0.56710      0.34719  1.0000
  O2          0.41442      0.74820      0.68541  1.0000
  O2          0.24345      0.64532      0.00868  1.0000
  O2          0.65945      0.42095      0.83716  1.0000
  O1          0.59805      0.24502      0.16542  1.0000
  O3          0.79042      0.32852      0.51511  1.0000
  O2          0.59143      0.34333      0.99674  1.0000
  O2          0.75821      0.39868      0.67741  1.0000
  O1          0.70347      0.24957      0.33955  1.0000
  O3          0.42912      0.65988      0.52222  1.0000
  O3          0.23271      0.55553      0.17114  1.0000
  O2          0.34160      0.76159      0.84745  1.0000
  O2          0.12883      0.20728      0.97662  1.0000
  O1          0.81454      0.90633      0.32345  1.0000
  O2          0.08086      0.85602      0.65621  1.0000
  O3          0.88923      0.78731      0.49135  1.0000
  O2          0.21525      0.08768      0.81768  1.0000
  O2          0.91439      0.11167      0.14196  1.0000
  O1          0.21637      0.11742      0.37657  1.0000
  O2          0.92178      0.78055      0.03252  1.0000
  O2          0.87245      0.07448      0.70855  1.0000
  O2          0.78537      0.87499      0.86795  1.0000
  O2          0.11485      0.21127      0.54541  1.0000
  O1          0.16640      0.93533      0.19952  1.0000
  O1          0.96526      0.88882      0.25656  1.0000
  O2          0.13019      0.04580      0.60037  1.0000
  O2          0.92740      0.06464      0.92445  1.0000
  O2          0.06902      0.12846      0.76216  1.0000
  O2          0.87167      0.92643      0.08519  1.0000
  O3          0.07251      0.90447      0.43480  1.0000
  O2          0.90576      0.19428      0.98878  1.0000
  O1          0.80329      0.67911      0.31632  1.0000
  O2          0.29568      0.07685      0.66165  1.0000
  O2          0.10618      0.78686      0.50009  1.0000
  O2          0.20483      0.30015      0.82170  1.0000
  O3          0.72303      0.87084      0.15418  1.0000
  O1          0.25809      0.91528      0.37328  1.0000
  O2          0.70825      0.78853      0.02376  1.0000
  O2          0.09544      0.28706      0.70052  1.0000
  O2          0.79605      0.09730      0.86345  1.0000
  O3          0.31346      0.18059      0.54257  1.0000
  O3          0.93039      0.70741      0.19377  1.0000
  O1          0.35216      0.62057      0.25576  1.0000
  O2          0.35757      0.67365      0.60355  1.0000
  O2          0.32627      0.67106      0.92687  1.0000
  O2          0.67580      0.34145      0.75891  1.0000
  O3          0.63381      0.32322      0.08089  1.0000
  O1          0.67470      0.28260      0.43182  1.0000
  O2          0.37886      0.32691      0.97397  1.0000
  O1          0.72487      0.05592      0.29893  1.0000
  O2          0.95288      0.60635      0.65218  1.0000
  O1          0.63275      0.63926      0.49432  1.0000
  O2          0.33021      0.95449      0.81787  1.0000
  O2          0.03463      0.35956      0.14172  1.0000
  O1          0.32119      0.36006      0.38678  1.0000
  O2          0.04796      0.65671      0.03748  1.0000
  O2          0.62275      0.94300      0.71122  1.0000
  O2          0.67084      0.62703      0.86715  1.0000
  O2          0.98156      0.32517      0.54490  1.0000
  O1          0.41729      0.01708      0.19135  1.0000
  O2          0.77325      0.29962      0.01637  1.0000
  O1          0.73456      0.47041      0.36639  1.0000
  O2          0.52905      0.21081      0.68939  1.0000
  O2          0.23654      0.68933      0.53035  1.0000
  O2          0.30296      0.53147      0.85358  1.0000
  O1          0.47546      0.75721      0.17806  1.0000
  O1          0.30165      0.75813      0.32025  1.0000
  O2          0.47286      0.68746      0.99648  1.0000
  O2          0.22786      0.52159      0.67311  1.0000
  O2          0.69624      0.22731      0.83240  1.0000
  O1          0.56123      0.31446      0.51144  1.0000
  O3          0.77778      0.48458      0.16321  1.0000
  O2          0.79528      0.53102      0.03479  1.0000
  O1          0.48025      0.24089      0.36752  1.0000
  O2          0.74564      0.19733      0.70612  1.0000
  O2          0.23592      0.46387      0.54715  1.0000
  O2          0.53453      0.74616      0.86985  1.0000
  O1          0.24987      0.76222      0.21495  1.0000
  O1          0.55148      0.78170      0.32230  1.0000
  O2          0.25368      0.45686      0.97878  1.0000
  O2          0.20842      0.73386      0.65738  1.0000
  O2          0.46575      0.21073      0.81574  1.0000
  O1          0.78477      0.52893      0.47149  1.0000
  O3          0.78237      0.23201      0.14760  1.0000
  O2          0.23669      0.32130      0.90419  1.0000
  O1          0.69579      0.85801      0.24084  1.0000
  O2          0.09331      0.75422      0.58329  1.0000
  O1          0.75980      0.68945      0.40961  1.0000
  O2          0.32224      0.08017      0.74481  1.0000
  O2          0.89167      0.22080      0.07216  1.0000
  O1          0.34291      0.19151      0.45257  1.0000
  O2          0.92059      0.67365      0.10739  1.0000
  O2          0.76513      0.08463      0.78085  1.0000
  O2          0.67860      0.76314      0.94057  1.0000
  O2          0.10502      0.31710      0.61799  1.0000
  O1          0.29074      0.95668      0.27810  1.0000
  O2          0.59421      0.55422      0.99317  1.0000
  O1          0.49696      0.01600      0.33397  1.0000
  O2          0.97191      0.39677      0.67121  1.0000
  O1          0.39124      0.41396      0.50308  1.0000
  O2          0.55771      0.97174      0.83707  1.0000
  O2          0.02952      0.57593      0.16105  1.0000
  O1          0.55451      0.55272      0.35106  1.0000
  O2          0.02486      0.42922      0.02059  1.0000
  O2          0.40943      0.95640      0.69150  1.0000
  O2          0.44345      0.41749      0.84732  1.0000
  O2          0.98068      0.54893      0.52730  1.0000
  O1          0.65369      0.03431      0.18567  1.0000
  O1          0.60789      0.17386      0.25313  1.0000
  O2          0.84460      0.39986      0.59758  1.0000
  O2          0.58352      0.41731      0.91806  1.0000
  O2          0.41598      0.82959      0.76584  1.0000
  O2          0.15921      0.56644      0.09022  1.0000
  O1          0.44146      0.59618      0.43281  1.0000
  F           0.49764      0.88654      0.25181  1.0000
  F           0.10345      0.53731      0.59964  1.0000
  F           0.45316      0.54418      0.92340  1.0000
  F           0.54662      0.08742      0.76270  1.0000
  F           0.87154      0.42396      0.09644  1.0000
  F           0.53642      0.41660      0.43069  1.0000
