data_cif

_audit_creation_method             'generated by GULP'

_symmetry_space_group_name_H-M     'P 1'
_symmetry_Int_Tables_number        1
_symmetry_cell_setting             triclinic

_cell_length_a                       12.1095
_cell_length_b                       12.0963
_cell_length_c                       30.0750
_cell_angle_alpha                   89.9935
_cell_angle_beta                    89.9418
_cell_angle_gamma                  120.0106

loop_
_atom_site_label
_atom_site_fract_x
_atom_site_fract_y
_atom_site_fract_z
_atom_site_occupancy
  Si          0.69960      0.37570      0.03389  1.0000
  Ge          0.61418      0.30107      0.38024  1.0000
  Si          0.65836      0.27729      0.71196  1.0000
  Si          0.28906      0.62004      0.55379  1.0000
  Si          0.37032      0.66520      0.87517  1.0000
  Ge          0.30740      0.67800      0.20387  1.0000
  Ge          0.36249      0.67689      0.30616  1.0000
  Si          0.31828      0.60828      0.97385  1.0000
  Si          0.28116      0.66408      0.65281  1.0000
  Si          0.60675      0.28378      0.81051  1.0000
  Ge          0.68030      0.36560      0.48113  1.0000
  Si          0.69482      0.32055      0.13244  1.0000
  Si          0.52198      0.40869      0.97165  1.0000
  Ge          0.59407      0.11189      0.30497  1.0000
  Si          0.87337      0.45120      0.65027  1.0000
  Ge          0.44125      0.56414      0.48556  1.0000
  Si          0.40599      0.87862      0.81405  1.0000
  Si          0.09863      0.50983      0.13547  1.0000
  Ge          0.39262      0.51257      0.38069  1.0000
  Si          0.10509      0.56938      0.03598  1.0000
  Si          0.45657      0.87596      0.71440  1.0000
  Si          0.57135      0.46137      0.87186  1.0000
  Si          0.88533      0.40823      0.55063  1.0000
  Ge          0.54204      0.11088      0.20043  1.0000
  Si          0.29307      0.38971      0.85975  1.0000
  Ge          0.59733      0.88148      0.19052  1.0000
  Si          0.08471      0.68979      0.53907  1.0000
  Ge          0.68269      0.58765      0.36336  1.0000
  Si          0.38182      0.07924      0.69882  1.0000
  Si          0.89512      0.29299      0.02085  1.0000
  Ge          0.39421      0.28386      0.50005  1.0000
  Si          0.90026      0.59305      0.14859  1.0000
  Si          0.68471      0.08588      0.82621  1.0000
  Si          0.59508      0.68674      0.98636  1.0000
  Si          0.08477      0.38548      0.66455  1.0000
  Ge          0.30483      0.89895      0.32442  1.0000
  Si          0.24444      0.32940      0.95856  1.0000
  Ge          0.65241      0.89081      0.29194  1.0000
  Si          0.07080      0.73064      0.63828  1.0000
  Ge          0.73229      0.64946      0.46600  1.0000
  Si          0.32733      0.07679      0.79793  1.0000
  Si          0.89144      0.23518      0.11959  1.0000
  Ge          0.33207      0.23424      0.40017  1.0000
  Si          0.90939      0.65310      0.04989  1.0000
  Si          0.73377      0.07400      0.72742  1.0000
  Si          0.64965      0.73834      0.88735  1.0000
  Si          0.09018      0.33815      0.56537  1.0000
  Ge          0.25268      0.90715      0.22144  1.0000
  Si          0.96449      0.11290      0.97233  1.0000
  Ge          0.87239      0.82811      0.30625  1.0000
  Si          0.12941      0.00529      0.65196  1.0000
  Ge          0.01488      0.86614      0.48381  1.0000
  Si          0.11145      0.14062      0.81192  1.0000
  Si          0.83940      0.95730      0.13377  1.0000
  Ge          0.11272      0.94873      0.37943  1.0000
  Si          0.84491      0.86773      0.03476  1.0000
  Si          0.01320      0.13612      0.71365  1.0000
  Si          0.86607      0.01834      0.87408  1.0000
  Ge          0.14592      0.11129      0.55248  1.0000
  Ge          0.96565      0.84431      0.19971  1.0000
  O2          0.92298      0.99013      0.00323  1.0000
  O1          0.01224      0.89640      0.33435  1.0000
  O2          0.05435      0.05528      0.68249  1.0000
  O1          0.06807      0.00810      0.50935  1.0000
  O2          0.98885      0.06158      0.84304  1.0000
  O3          0.93554      0.93659      0.16384  1.0000
  O1          0.31127      0.55496      0.34444  1.0000
  O2          0.40340      0.74774      0.68445  1.0000
  O2          0.23284      0.64486      0.00572  1.0000
  O2          0.64520      0.40960      0.84051  1.0000
  O3          0.57765      0.23954      0.16519  1.0000
  O3          0.77037      0.33004      0.51722  1.0000
  O2          0.57718      0.33663      0.00216  1.0000
  O2          0.74509      0.39903      0.68005  1.0000
  O1          0.66997      0.23663      0.34131  1.0000
  O3          0.40610      0.65784      0.52076  1.0000
  O3          0.21728      0.55116      0.16759  1.0000
  O2          0.33184      0.75292      0.84530  1.0000
  O2          0.11771      0.20330      0.97721  1.0000
  O1          0.78059      0.89372      0.31898  1.0000
  O2          0.06884      0.85302      0.66000  1.0000
  O1          0.85479      0.77735      0.49277  1.0000
  O2          0.20242      0.07860      0.81706  1.0000
  O2          0.88577      0.10826      0.13881  1.0000
  O1          0.18946      0.10889      0.37922  1.0000
  O2          0.90982      0.77885      0.03021  1.0000
  O2          0.86022      0.07432      0.70872  1.0000
  O2          0.77474      0.86547      0.86835  1.0000
  O3          0.08786      0.21536      0.54570  1.0000
  O1          0.12685      0.91677      0.19924  1.0000
  O1          0.90715      0.84696      0.25068  1.0000
  O3          0.10384      0.02974      0.60210  1.0000
  O2          0.92085      0.05861      0.92324  1.0000
  O2          0.05633      0.12583      0.76277  1.0000
  O2          0.85625      0.92149      0.08371  1.0000
  O1          0.02930      0.87850      0.42694  1.0000
  O2          0.89665      0.19523      0.98405  1.0000
  O1          0.78270      0.66951      0.32004  1.0000
  O2          0.28156      0.07663      0.66193  1.0000
  O3          0.09352      0.78759      0.50161  1.0000
  O2          0.19349      0.29123      0.82311  1.0000
  O3          0.69599      0.87294      0.14879  1.0000
  O1          0.22073      0.89829      0.37029  1.0000
  O2          0.69479      0.78410      0.02297  1.0000
  O2          0.08258      0.28592      0.70127  1.0000
  O2          0.78432      0.08726      0.86281  1.0000
  O1          0.30455      0.18774      0.54482  1.0000
  O3          0.89785      0.68378      0.18665  1.0000
  O1          0.32815      0.61549      0.25286  1.0000
  O2          0.34192      0.67171      0.60368  1.0000
  O2          0.31614      0.66471      0.92484  1.0000
  O2          0.66062      0.33705      0.76073  1.0000
  O2          0.63984      0.32091      0.08299  1.0000
  O1          0.65060      0.27519      0.43370  1.0000
  O2          0.36717      0.32042      0.97579  1.0000
  O1          0.69033      0.04662      0.29890  1.0000
  O2          0.93973      0.60590      0.65428  1.0000
  O1          0.60196      0.62805      0.49480  1.0000
  O2          0.31911      0.94685      0.81674  1.0000
  O2          0.02215      0.35460      0.13866  1.0000
  O1          0.29661      0.35159      0.38786  1.0000
  O2          0.03985      0.65907      0.03290  1.0000
  O2          0.61121      0.94230      0.71015  1.0000
  O2          0.65825      0.61655      0.86874  1.0000
  O2          0.96097      0.32990      0.54680  1.0000
  O1          0.38075      0.01832      0.19196  1.0000
  O2          0.76579      0.29899      0.01251  1.0000
  O1          0.70580      0.46010      0.36805  1.0000
  O2          0.51580      0.21075      0.69014  1.0000
  O2          0.21742      0.69002      0.53205  1.0000
  O2          0.29423      0.52349      0.85278  1.0000
  O1          0.44923      0.76133      0.17542  1.0000
  O1          0.27142      0.74433      0.31933  1.0000
  O2          0.46127      0.68417      0.99511  1.0000
  O2          0.21416      0.52046      0.67354  1.0000
  O2          0.68293      0.21824      0.83279  1.0000
  O1          0.54454      0.31726      0.51256  1.0000
  O2          0.76641      0.46111      0.15524  1.0000
  O2          0.78407      0.53028      0.03003  1.0000
  O1          0.45222      0.23064      0.36996  1.0000
  O2          0.73259      0.19688      0.70708  1.0000
  O2          0.21632      0.46498      0.54779  1.0000
  O2          0.52452      0.73848      0.86895  1.0000
  O1          0.22264      0.75462      0.21222  1.0000
  O1          0.52230      0.77124      0.31925  1.0000
  O2          0.24548      0.45360      0.97871  1.0000
  O2          0.19603      0.73285      0.65770  1.0000
  O2          0.45251      0.20221      0.81623  1.0000
  O1          0.76251      0.52541      0.47027  1.0000
  O2          0.76695      0.23732      0.13780  1.0000
  O2          0.22588      0.31512      0.90534  1.0000
  O1          0.66210      0.85350      0.23724  1.0000
  O2          0.07609      0.75630      0.58511  1.0000
  O1          0.72805      0.68231      0.41052  1.0000
  O2          0.31020      0.07650      0.74462  1.0000
  O2          0.89374      0.22101      0.06623  1.0000
  O1          0.32185      0.18533      0.45489  1.0000
  O2          0.90825      0.67073      0.10324  1.0000
  O2          0.75200      0.07859      0.78063  1.0000
  O2          0.66657      0.75559      0.94055  1.0000
  O2          0.08974      0.31792      0.61883  1.0000
  O1          0.25627      0.94331      0.27699  1.0000
  O2          0.57956      0.54799      0.99474  1.0000
  O1          0.46138      0.00537      0.33498  1.0000
  O2          0.95814      0.39569      0.67227  1.0000
  O1          0.36288      0.40771      0.50123  1.0000
  O2          0.54625      0.96365      0.83610  1.0000
  O2          0.02373      0.57740      0.15728  1.0000
  O1          0.52829      0.54376      0.35117  1.0000
  O2          0.02036      0.43070      0.01280  1.0000
  O2          0.39812      0.95630      0.69059  1.0000
  O2          0.43112      0.40523      0.84969  1.0000
  O2          0.95891      0.55247      0.52976  1.0000
  O1          0.62152      0.03315      0.18550  1.0000
  O1          0.57197      0.16643      0.25471  1.0000
  O2          0.82619      0.40178      0.59991  1.0000
  O2          0.57196      0.40889      0.92153  1.0000
  O2          0.40593      0.82601      0.76440  1.0000
  O2          0.15361      0.56375      0.08581  1.0000
  O1          0.41473      0.59014      0.43116  1.0000
  F           0.46281      0.88745      0.25308  1.0000
  F           0.08597      0.53843      0.60070  1.0000
  F           0.44323      0.53763      0.92303  1.0000
  F           0.53432      0.08318      0.76185  1.0000
  F           0.89428      0.44223      0.08555  1.0000
  F           0.51324      0.41001      0.43205  1.0000
