data_cif

_audit_creation_method             'generated by GULP'

_symmetry_space_group_name_H-M     'P 1'
_symmetry_Int_Tables_number        1
_symmetry_cell_setting             triclinic

_cell_length_a                       12.0963
_cell_length_b                       12.1009
_cell_length_c                       30.0750
_cell_angle_alpha                   89.9351
_cell_angle_beta                    90.0065
_cell_angle_gamma                  119.9404

loop_
_atom_site_label
_atom_site_fract_x
_atom_site_fract_y
_atom_site_fract_z
_atom_site_occupancy
  Si          0.69960      0.37570      0.03389  1.0000
  Ge          0.62389      0.31278      0.36259  1.0000
  Si          0.66351      0.29445      0.71250  1.0000
  Ge          0.30760      0.61957      0.53895  1.0000
  Si          0.37556      0.66374      0.87068  1.0000
  Si          0.31839      0.70498      0.19261  1.0000
  Si          0.36875      0.70020      0.29116  1.0000
  Si          0.31746      0.61213      0.96922  1.0000
  Ge          0.30919      0.68568      0.63985  1.0000
  Si          0.61157      0.28655      0.81152  1.0000
  Ge          0.68008      0.36787      0.46487  1.0000
  Si          0.70448      0.32366      0.13256  1.0000
  Si          0.52185      0.41137      0.97276  1.0000
  Si          0.58328      0.10401      0.29418  1.0000
  Ge          0.87161      0.44663      0.64428  1.0000
  Ge          0.47667      0.59945      0.46368  1.0000
  Si          0.41666      0.87876      0.80899  1.0000
  Si          0.10778      0.52736      0.13037  1.0000
  Ge          0.42564      0.54742      0.35914  1.0000
  Si          0.10447      0.57673      0.03058  1.0000
  Si          0.47159      0.89072      0.70935  1.0000
  Si          0.57509      0.46195      0.87312  1.0000
  Ge          0.87454      0.39800      0.53941  1.0000
  Si          0.53019      0.11047      0.19470  1.0000
  Si          0.29707      0.38721      0.85754  1.0000
  Si          0.59662      0.90050      0.17957  1.0000
  Ge          0.08953      0.68807      0.52207  1.0000
  Ge          0.71034      0.60271      0.34924  1.0000
  Si          0.38940      0.09009      0.69778  1.0000
  Si          0.89785      0.29846      0.01847  1.0000
  Ge          0.40036      0.31021      0.48314  1.0000
  Si          0.90283      0.60047      0.14507  1.0000
  Si          0.69378      0.09015      0.82326  1.0000
  Si          0.59332      0.69009      0.98492  1.0000
  Ge          0.10484      0.39959      0.65876  1.0000
  Si          0.30169      0.90564      0.30730  1.0000
  Si          0.24503      0.33272      0.95664  1.0000
  Si          0.65074      0.89682      0.27830  1.0000
  Ge          0.07732      0.73767      0.62472  1.0000
  Ge          0.75608      0.65779      0.45066  1.0000
  Si          0.33465      0.07619      0.79700  1.0000
  Si          0.90953      0.24982      0.11727  1.0000
  Ge          0.34002      0.25806      0.38016  1.0000
  Si          0.90580      0.65504      0.04607  1.0000
  Si          0.74652      0.09556      0.72409  1.0000
  Si          0.65426      0.73916      0.88613  1.0000
  Ge          0.09232      0.33745      0.55889  1.0000
  Si          0.25077      0.91477      0.20860  1.0000
  Si          0.96532      0.11683      0.97063  1.0000
  Si          0.87659      0.84478      0.29248  1.0000
  Ge          0.14323      0.02027      0.64253  1.0000
  Ge          0.03877      0.87777      0.46497  1.0000
  Si          0.11861      0.13480      0.81068  1.0000
  Si          0.84608      0.96987      0.13105  1.0000
  Ge          0.11583      0.97103      0.35843  1.0000
  Si          0.84222      0.87146      0.03279  1.0000
  Ge          0.02912      0.15131      0.71120  1.0000
  Si          0.87156      0.01858      0.87237  1.0000
  Ge          0.15848      0.11811      0.53814  1.0000
  Si          0.97167      0.85029      0.19348  1.0000
  O2          0.92175      0.99423      0.00175  1.0000
  O3          0.99343      0.94092      0.32255  1.0000
  O1          0.05445      0.07345      0.66807  1.0000
  O1          0.11032      0.01762      0.49307  1.0000
  O2          0.99356      0.05974      0.84121  1.0000
  O2          0.92734      0.92836      0.16195  1.0000
  O3          0.33260      0.58303      0.32390  1.0000
  O3          0.43483      0.77576      0.67593  1.0000
  O2          0.23008      0.65058      0.99923  1.0000
  O2          0.65014      0.40878      0.84316  1.0000
  O2          0.58247      0.23823      0.16444  1.0000
  O1          0.75081      0.31666      0.50315  1.0000
  O2          0.57341      0.33722      0.00402  1.0000
  O3          0.74275      0.41149      0.67947  1.0000
  O3          0.66061      0.22266      0.32631  1.0000
  O1          0.42782      0.67535      0.50002  1.0000
  O2          0.23504      0.58256      0.16087  1.0000
  O2          0.34055      0.75047      0.83876  1.0000
  O2          0.11831      0.20781      0.97578  1.0000
  O2          0.77200      0.89115      0.29752  1.0000
  O1          0.07193      0.86017      0.65149  1.0000
  O1          0.88136      0.78597      0.47770  1.0000
  O2          0.21031      0.07423      0.81872  1.0000
  O2          0.90890      0.12309      0.13593  1.0000
  O1          0.20457      0.13223      0.35796  1.0000
  O2          0.90375      0.78012      0.02707  1.0000
  O3          0.86699      0.09324      0.70442  1.0000
  O2          0.78038      0.86561      0.86743  1.0000
  O1          0.07506      0.19485      0.53793  1.0000
  O2          0.12546      0.91520      0.18892  1.0000
  O2          0.92924      0.86163      0.24243  1.0000
  O1          0.14529      0.03469      0.58566  1.0000
  O2          0.92499      0.06172      0.92148  1.0000
  O3          0.06859      0.10922      0.76082  1.0000
  O2          0.85673      0.92623      0.08195  1.0000
  O1          0.05468      0.91254      0.40940  1.0000
  O2          0.89675      0.19887      0.98183  1.0000
  O3          0.81753      0.70137      0.30750  1.0000
  O3          0.30042      0.09891      0.66033  1.0000
  O1          0.10767      0.78808      0.47876  1.0000
  O2          0.19941      0.28695      0.82064  1.0000
  O2          0.69591      0.90203      0.14277  1.0000
  O3          0.20856      0.90323      0.34536  1.0000
  O2          0.69155      0.78970      0.02153  1.0000
  O1          0.11130      0.30993      0.70354  1.0000
  O2          0.79115      0.08796      0.85998  1.0000
  O1          0.31693      0.22610      0.52900  1.0000
  O2          0.90518      0.70017      0.18169  1.0000
  O2          0.31342      0.64522      0.24170  1.0000
  O1          0.36990      0.65598      0.59242  1.0000
  O2          0.31806      0.66601      0.91945  1.0000
  O2          0.66470      0.34731      0.76240  1.0000
  O2          0.64591      0.32152      0.08355  1.0000
  O1          0.70715      0.33353      0.41157  1.0000
  O2          0.36675      0.32450      0.97546  1.0000
  O2          0.66203      0.02753      0.29738  1.0000
  O1          0.96840      0.60734      0.65352  1.0000
  O1          0.63819      0.69571      0.45761  1.0000
  O2          0.32832      0.94512      0.81300  1.0000
  O2          0.04124      0.37255      0.13451  1.0000
  O1          0.35692      0.38613      0.35068  1.0000
  O2          0.03618      0.66363      0.02746  1.0000
  O2          0.62556      0.96635      0.70551  1.0000
  O2          0.66340      0.61660      0.86886  1.0000
  O1          0.93951      0.30200      0.54658  1.0000
  O2          0.37527      0.04523      0.19161  1.0000
  O2          0.76522      0.29961      0.01150  1.0000
  O1          0.68239      0.45461      0.33414  1.0000
  O2          0.52189      0.22280      0.69076  1.0000
  O1          0.24019      0.71118      0.52677  1.0000
  O2          0.29954      0.52119      0.84886  1.0000
  O2          0.46129      0.77117      0.17123  1.0000
  O2          0.29978      0.77179      0.31395  1.0000
  O2          0.45918      0.68831      0.99151  1.0000
  O1          0.22177      0.54992      0.67127  1.0000
  O2          0.68819      0.21954      0.83225  1.0000
  O1          0.52158      0.27680      0.47804  1.0000
  O2          0.77158      0.46665      0.15383  1.0000
  O2          0.78053      0.52990      0.02767  1.0000
  O1          0.46251      0.22802      0.37094  1.0000
  O2          0.74583      0.22171      0.70651  1.0000
  O1          0.21608      0.45761      0.52868  1.0000
  O2          0.53020      0.73798      0.86580  1.0000
  O2          0.24828      0.78945      0.18874  1.0000
  O2          0.52412      0.77233      0.29652  1.0000
  O2          0.24478      0.45789      0.97495  1.0000
  O1          0.23159      0.76789      0.62899  1.0000
  O2          0.45767      0.20142      0.81642  1.0000
  O1          0.74554      0.52768      0.47796  1.0000
  O2          0.78637      0.25086      0.13742  1.0000
  O2          0.22818      0.31558      0.90333  1.0000
  O2          0.66722      0.89912      0.22495  1.0000
  O1          0.04023      0.73343      0.56924  1.0000
  O1          0.80309      0.66748      0.39595  1.0000
  O2          0.31428      0.08148      0.74382  1.0000
  O2          0.90524      0.23126      0.06406  1.0000
  O1          0.30746      0.26165      0.43571  1.0000
  O2          0.90547      0.67195      0.09927  1.0000
  O2          0.76631      0.09513      0.77754  1.0000
  O2          0.66790      0.75738      0.93935  1.0000
  O1          0.13101      0.32723      0.61360  1.0000
  O2          0.23200      0.91363      0.26195  1.0000
  O2          0.57709      0.55164      0.99481  1.0000
  O2          0.44081      0.02911      0.31600  1.0000
  O1          0.94966      0.36826      0.65994  1.0000
  O1          0.45049      0.46676      0.49370  1.0000
  O2          0.55694      0.96353      0.83099  1.0000
  O2          0.02606      0.58494      0.15346  1.0000
  O1          0.58285      0.62690      0.34422  1.0000
  O2          0.02038      0.43651      0.00840  1.0000
  O2          0.40093      0.96430      0.68848  1.0000
  O2          0.43631      0.40351      0.84931  1.0000
  O1          0.97902      0.53367      0.50989  1.0000
  O2          0.58414      0.02574      0.17152  1.0000
  O2          0.58434      0.15899      0.24453  1.0000
  O1          0.81908      0.42011      0.58987  1.0000
  O2          0.57441      0.41132      0.92311  1.0000
  O2          0.41890      0.83158      0.75863  1.0000
  O2          0.15756      0.57734      0.08024  1.0000
  O1          0.40003      0.57735      0.41342  1.0000
  F           0.44653      0.89966      0.24426  1.0000
  F           0.09772      0.51863      0.59076  1.0000
  F           0.44564      0.53971      0.92057  1.0000
  F           0.54203      0.09136      0.75941  1.0000
  F           0.90009      0.44862      0.08174  1.0000
  F           0.56985      0.46819      0.41179  1.0000
