data_cif

_audit_creation_method             'generated by GULP'

_symmetry_space_group_name_H-M     'P 1'
_symmetry_Int_Tables_number        1
_symmetry_cell_setting             triclinic

_cell_length_a                       12.0970
_cell_length_b                       12.1015
_cell_length_c                       30.0211
_cell_angle_alpha                   90.3259
_cell_angle_beta                    90.3319
_cell_angle_gamma                  119.8630

loop_
_atom_site_label
_atom_site_fract_x
_atom_site_fract_y
_atom_site_fract_z
_atom_site_occupancy
  Si          0.69960      0.37570      0.03389  1.0000
  Si          0.62114      0.33389      0.35381  1.0000
  Ge          0.71359      0.33829      0.68335  1.0000
  Si          0.30093      0.62618      0.51726  1.0000
  Ge          0.36342      0.68763      0.86271  1.0000
  Si          0.32805      0.71354      0.19304  1.0000
  Si          0.38431      0.71479      0.29187  1.0000
  Ge          0.30947      0.62797      0.96435  1.0000
  Si          0.31666      0.68561      0.61822  1.0000
  Ge          0.65209      0.33607      0.78666  1.0000
  Si          0.67893      0.39179      0.45264  1.0000
  Si          0.70644      0.32770      0.13236  1.0000
  Ge          0.54403      0.42923      0.96534  1.0000
  Si          0.58350      0.11801      0.29326  1.0000
  Ge          0.92961      0.50081      0.61455  1.0000
  Si          0.47492      0.59053      0.45326  1.0000
  Ge          0.43079      0.89840      0.79025  1.0000
  Si          0.11101      0.53781      0.13180  1.0000
  Si          0.42020      0.53851      0.35347  1.0000
  Si          0.10280      0.58856      0.03200  1.0000
  Ge          0.47838      0.89888      0.68507  1.0000
  Ge          0.58997      0.48187      0.86109  1.0000
  Si          0.88513      0.42516      0.51760  1.0000
  Si          0.53026      0.11663      0.19343  1.0000
  Ge          0.29532      0.40493      0.84781  1.0000
  Si          0.60412      0.91134      0.17936  1.0000
  Si          0.10081      0.70805      0.50469  1.0000
  Si          0.69850      0.61001      0.34023  1.0000
  Ge          0.42101      0.12728      0.67051  1.0000
  Si          0.90387      0.30582      0.01844  1.0000
  Si          0.40330      0.31424      0.46669  1.0000
  Si          0.90124      0.60429      0.14700  1.0000
  Ge          0.71630      0.11888      0.80255  1.0000
  Ge          0.59643      0.71341      0.98052  1.0000
  Si          0.11083      0.40699      0.63694  1.0000
  Si          0.30666      0.91297      0.30655  1.0000
  Ge          0.25327      0.34646      0.95071  1.0000
  Si          0.66242      0.91977      0.27868  1.0000
  Si          0.11754      0.77570      0.60541  1.0000
  Si          0.75199      0.67049      0.43939  1.0000
  Ge          0.36295      0.11705      0.77372  1.0000
  Si          0.91525      0.25900      0.11762  1.0000
  Si          0.34211      0.26137      0.36774  1.0000
  Si          0.89640      0.65687      0.04830  1.0000
  Ge          0.76303      0.10592      0.70130  1.0000
  Ge          0.65343      0.76508      0.87902  1.0000
  Si          0.08698      0.34557      0.53523  1.0000
  Si          0.25378      0.91898      0.20756  1.0000
  Ge          0.97435      0.12322      0.96815  1.0000
  Si          0.87981      0.85797      0.29300  1.0000
  Si          0.18050      0.05843      0.61585  1.0000
  Si          0.03216      0.88774      0.45448  1.0000
  Ge          0.12563      0.15844      0.79075  1.0000
  Si          0.85436      0.98214      0.13192  1.0000
  Si          0.12643      0.98072      0.35562  1.0000
  Si          0.84275      0.88086      0.03376  1.0000
  Ge          0.04579      0.15671      0.68352  1.0000
  Ge          0.88779      0.04537      0.86040  1.0000
  Si          0.15723      0.13480      0.51669  1.0000
  Si          0.97381      0.85600      0.19460  1.0000
  O3          0.92207      0.98445      0.99703  1.0000
  O2          0.00046      0.93525      0.32572  1.0000
  O3          0.08086      0.07151      0.64563  1.0000
  O2          0.07333      0.01061      0.48587  1.0000
  O1          0.99775      0.06031      0.82123  1.0000
  O2          0.93042      0.93513      0.16340  1.0000
  O2          0.34589      0.59059      0.32262  1.0000
  O3          0.43705      0.76762      0.64900  1.0000
  O3          0.21981      0.66758      0.00038  1.0000
  O1          0.68301      0.45713      0.82432  1.0000
  O2          0.58296      0.24281      0.16318  1.0000
  O2          0.76750      0.35380      0.48221  1.0000
  O3          0.58412      0.33879      0.00010  1.0000
  O1          0.79895      0.46063      0.64907  1.0000
  O2          0.65891      0.24639      0.32368  1.0000
  O2          0.41997      0.66181      0.48498  1.0000
  O2          0.24017      0.59000      0.16184  1.0000
  O1          0.33278      0.77366      0.82400  1.0000
  O1          0.13284      0.21464      0.97709  1.0000
  O2          0.78891      0.92021      0.29793  1.0000
  O2          0.15063      0.91386      0.62278  1.0000
  O2          0.87893      0.79700      0.45828  1.0000
  O1          0.23893      0.11649      0.80094  1.0000
  O2          0.91662      0.13497      0.13808  1.0000
  O2          0.21564      0.13355      0.34957  1.0000
  O2          0.89298      0.77955      0.02956  1.0000
  O1          0.88852      0.09754      0.67674  1.0000
  O1          0.78460      0.88608      0.85501  1.0000
  O2          0.09171      0.22361      0.51435  1.0000
  O2          0.12637      0.91713      0.18878  1.0000
  O2          0.93665      0.87281      0.24421  1.0000
  O2          0.15527      0.08429      0.56545  1.0000
  O1          0.95346      0.08738      0.91248  1.0000
  O1          0.09235      0.13658      0.73459  1.0000
  O2          0.87301      0.94888      0.08201  1.0000
  O2          0.07777      0.94134      0.40558  1.0000
  O3          0.89774      0.20840      0.98086  1.0000
  O2          0.79650      0.70752      0.30365  1.0000
  O3          0.32540      0.14610      0.63010  1.0000
  O2          0.09857      0.80466      0.46781  1.0000
  O1          0.18960      0.31463      0.80569  1.0000
  O2          0.70336      0.91286      0.14265  1.0000
  O2          0.20836      0.91286      0.34346  1.0000
  O3          0.69476      0.81309      0.02394  1.0000
  O3          0.13057      0.31949      0.67205  1.0000
  O1          0.81721      0.13068      0.84662  1.0000
  O2          0.30520      0.21663      0.50310  1.0000
  O2          0.90397      0.70500      0.18397  1.0000
  O2          0.32832      0.65799      0.24238  1.0000
  O2          0.35590      0.68104      0.56668  1.0000
  O1          0.32624      0.71238      0.91606  1.0000
  O1          0.73637      0.39286      0.73847  1.0000
  O2          0.64475      0.32234      0.08340  1.0000
  O2          0.67631      0.33437      0.40337  1.0000
  O1          0.38464      0.36087      0.97710  1.0000
  O2          0.67104      0.05056      0.29709  1.0000
  O3          0.98812      0.66874      0.62515  1.0000
  O2          0.62959      0.67876      0.45785  1.0000
  O1          0.37417      0.00060      0.80120  1.0000
  O2          0.04528      0.38324      0.13526  1.0000
  O2          0.33245      0.38349      0.35043  1.0000
  O2          0.02621      0.66732      0.02960  1.0000
  O1          0.63820      0.95457      0.69143  1.0000
  O1          0.68132      0.64036      0.87345  1.0000
  O2          0.95823      0.34065      0.51703  1.0000
  O2          0.37532      0.04953      0.18990  1.0000
  O2          0.77047      0.30473      0.01206  1.0000
  O2          0.69666      0.47619      0.33268  1.0000
  O1          0.55178      0.27497      0.67199  1.0000
  O2          0.22846      0.69792      0.49749  1.0000
  O1          0.26777      0.53092      0.84811  1.0000
  O2          0.47026      0.77934      0.17150  1.0000
  O2          0.30899      0.78137      0.31425  1.0000
  O1          0.44892      0.68527      0.99509  1.0000
  O2          0.24397      0.54275      0.63781  1.0000
  O1          0.70006      0.24674      0.81674  1.0000
  O2          0.53795      0.31797      0.47527  1.0000
  O2          0.77191      0.46939      0.15532  1.0000
  O2          0.77183      0.53099      0.02927  1.0000
  O2          0.46688      0.26322      0.34815  1.0000
  O1          0.75340      0.22242      0.67299  1.0000
  O2          0.20909      0.47381      0.51754  1.0000
  O1          0.52196      0.74535      0.85065  1.0000
  O2          0.25535      0.79541      0.18801  1.0000
  O2          0.53883      0.79515      0.29774  1.0000
  O1          0.21872      0.46562      0.96070  1.0000
  O2          0.23694      0.76034      0.62317  1.0000
  O1          0.48956      0.26803      0.78100  1.0000
  O2          0.75342      0.54658      0.45839  1.0000
  O2          0.78908      0.25556      0.13690  1.0000
  O1          0.24309      0.31090      0.89448  1.0000
  O2          0.67736      0.91675      0.22536  1.0000
  O2          0.10890      0.77802      0.55117  1.0000
  O2          0.76710      0.68458      0.38610  1.0000
  O1          0.32968      0.08618      0.71773  1.0000
  O2          0.91399      0.23891      0.06421  1.0000
  O2          0.32961      0.24442      0.42104  1.0000
  O2          0.89792      0.67421      0.10179  1.0000
  O1          0.80999      0.13691      0.75648  1.0000
  O1          0.65361      0.80766      0.93403  1.0000
  O2          0.08958      0.33275      0.58857  1.0000
  O2          0.23726      0.91753      0.26095  1.0000
  O1          0.62311      0.58718      0.97986  1.0000
  O2          0.44460      0.03656      0.31630  1.0000
  O3          0.99103      0.42029      0.64966  1.0000
  O2          0.41534      0.45153      0.47622  1.0000
  O1          0.58706      0.96744      0.80792  1.0000
  O2          0.02746      0.59313      0.15522  1.0000
  O2          0.55946      0.59334      0.33113  1.0000
  O2          0.02511      0.44546      0.01028  1.0000
  O1          0.45219      0.00760      0.65708  1.0000
  O1          0.44808      0.44502      0.83454  1.0000
  O2          0.97787      0.56904      0.49841  1.0000
  O2          0.58626      0.03286      0.17067  1.0000
  O2          0.58227      0.16832      0.24349  1.0000
  O3          0.83104      0.42516      0.56526  1.0000
  O1          0.56522      0.39978      0.91061  1.0000
  O1          0.40296      0.84461      0.73515  1.0000
  O2          0.15762      0.58925      0.08190  1.0000
  O2          0.42224      0.59194      0.40359  1.0000
  F           0.45467      0.91165      0.24395  1.0000
  F           0.06860      0.54545      0.57870  1.0000
  F           0.43980      0.56409      0.91723  1.0000
  F           0.58190      0.11578      0.74175  1.0000
  F           0.89715      0.45329      0.08327  1.0000
  F           0.55004      0.46362      0.40511  1.0000
