data_cif

_audit_creation_method             'generated by GULP'

_symmetry_space_group_name_H-M     'P 1'
_symmetry_Int_Tables_number        1
_symmetry_cell_setting             triclinic

_cell_length_a                       12.1009
_cell_length_b                       12.1095
_cell_length_c                       30.0750
_cell_angle_alpha                   90.0581
_cell_angle_beta                    89.9354
_cell_angle_gamma                  120.0489

loop_
_atom_site_label
_atom_site_fract_x
_atom_site_fract_y
_atom_site_fract_z
_atom_site_occupancy
  Ge          0.69960      0.37570      0.03389  1.0000
  Si          0.64163      0.33608      0.38380  1.0000
  Si          0.68680      0.29999      0.70519  1.0000
  Si          0.29888      0.62403      0.54198  1.0000
  Si          0.39730      0.68120      0.86391  1.0000
  Ge          0.32267      0.69200      0.21025  1.0000
  Ge          0.38719      0.69040      0.31115  1.0000
  Si          0.34215      0.63083      0.96246  1.0000
  Si          0.30538      0.68213      0.64052  1.0000
  Si          0.62988      0.29510      0.80386  1.0000
  Si          0.68567      0.38802      0.48282  1.0000
  Ge          0.69849      0.31951      0.13617  1.0000
  Si          0.53143      0.41630      0.96548  1.0000
  Ge          0.58573      0.12799      0.31558  1.0000
  Si          0.90022      0.47774      0.64406  1.0000
  Si          0.47280      0.58293      0.48029  1.0000
  Si          0.43029      0.89181      0.80167  1.0000
  Ge          0.13349      0.52292      0.13498  1.0000
  Si          0.42982      0.52800      0.38065  1.0000
  Ge          0.13248      0.57394      0.03044  1.0000
  Si          0.48296      0.89512      0.70188  1.0000
  Si          0.59098      0.46940      0.86600  1.0000
  Si          0.89756      0.42450      0.54442  1.0000
  Ge          0.53416      0.12506      0.21071  1.0000
  Si          0.31458      0.40296      0.85087  1.0000
  Ge          0.60924      0.91006      0.19337  1.0000
  Si          0.10083      0.70252      0.52883  1.0000
  Si          0.71139      0.61019      0.36908  1.0000
  Si          0.41130      0.10174      0.68977  1.0000
  Ge          0.90308      0.28925      0.02054  1.0000
  Si          0.40707      0.30581      0.49456  1.0000
  Ge          0.92055      0.59923      0.15444  1.0000
  Si          0.70834      0.09676      0.81637  1.0000
  Si          0.61465      0.69790      0.97860  1.0000
  Si          0.10747      0.40627      0.65622  1.0000
  Ge          0.30545      0.89475      0.33006  1.0000
  Si          0.25678      0.34885      0.94960  1.0000
  Ge          0.67105      0.92227      0.29602  1.0000
  Si          0.09839      0.75456      0.62794  1.0000
  Si          0.75224      0.66494      0.46830  1.0000
  Si          0.35099      0.09006      0.78857  1.0000
  Ge          0.91241      0.24351      0.12196  1.0000
  Si          0.35974      0.25307      0.39539  1.0000
  Ge          0.92874      0.65956      0.05146  1.0000
  Si          0.75994      0.09379      0.71737  1.0000
  Si          0.67470      0.74881      0.87990  1.0000
  Si          0.09559      0.34533      0.55743  1.0000
  Ge          0.25583      0.90728      0.23019  1.0000
  Si          0.97889      0.12300      0.96378  1.0000
  Ge          0.88774      0.85636      0.31383  1.0000
  Si          0.16221      0.03427      0.64193  1.0000
  Si          0.02688      0.88098      0.48197  1.0000
  Si          0.13449      0.15350      0.80235  1.0000
  Ge          0.84970      0.96082      0.13627  1.0000
  Ge          0.13289      0.97047      0.38250  1.0000
  Ge          0.86591      0.88376      0.02973  1.0000
  Si          0.03994      0.15737      0.70409  1.0000
  Si          0.88933      0.02792      0.86478  1.0000
  Si          0.15772      0.12803      0.54367  1.0000
  Ge          0.97032      0.84111      0.20944  1.0000
  O3          0.95819      0.00616      0.99385  1.0000
  O1          0.02969      0.94514      0.33937  1.0000
  O2          0.08318      0.07783      0.67305  1.0000
  O2          0.07687      0.00603      0.51251  1.0000
  O2          0.01173      0.07225      0.83325  1.0000
  O1          0.91798      0.88925      0.16437  1.0000
  O3          0.35163      0.56476      0.34723  1.0000
  O2          0.43120      0.76950      0.67052  1.0000
  O3          0.26114      0.66699      0.99520  1.0000
  O2          0.66645      0.41711      0.83574  1.0000
  O1          0.57656      0.24879      0.17445  1.0000
  O2          0.76933      0.34945      0.51446  1.0000
  O3          0.57276      0.33898      0.99761  1.0000
  O2          0.77451      0.42618      0.67532  1.0000
  O3          0.67943      0.25684      0.35077  1.0000
  O2          0.42062      0.65904      0.51006  1.0000
  O1          0.25823      0.57177      0.17132  1.0000
  O2          0.35822      0.76455      0.83217  1.0000
  O2          0.12985      0.22758      0.96882  1.0000
  O1          0.79894      0.92766      0.32279  1.0000
  O2          0.10020      0.88128      0.64708  1.0000
  O2          0.87461      0.78928      0.49002  1.0000
  O2          0.22489      0.09069      0.80723  1.0000
  O1          0.91532      0.11823      0.14900  1.0000
  O3          0.23695      0.13260      0.37571  1.0000
  O1          0.93836      0.79502      0.02926  1.0000
  O2          0.88706      0.09583      0.69837  1.0000
  O2          0.80044      0.87413      0.86022  1.0000
  O2          0.09592      0.21921      0.53873  1.0000
  O1          0.13048      0.92453      0.20923  1.0000
  O1          0.90009      0.85430      0.25696  1.0000
  O2          0.14742      0.07459      0.59278  1.0000
  O2          0.94309      0.07035      0.91373  1.0000
  O2          0.08020      0.14286      0.75325  1.0000
  O1          0.86856      0.94491      0.08070  1.0000
  O3          0.05133      0.93100      0.43212  1.0000
  O3          0.89454      0.18205      0.97880  1.0000
  O3          0.80919      0.69917      0.33163  1.0000
  O2          0.31283      0.10284      0.65313  1.0000
  O2          0.09823      0.80017      0.49194  1.0000
  O2          0.21682      0.30368      0.81407  1.0000
  O1          0.69110      0.89192      0.15005  1.0000
  O1          0.20933      0.88829      0.37484  1.0000
  O3          0.70538      0.79103      0.01666  1.0000
  O2          0.10886      0.30804      0.69283  1.0000
  O2          0.80569      0.09441      0.85299  1.0000
  O2          0.30751      0.20844      0.53128  1.0000
  O1          0.91989      0.68266      0.20030  1.0000
  O1          0.29678      0.62970      0.26371  1.0000
  O2          0.35865      0.68153      0.59075  1.0000
  O2          0.34250      0.68617      0.91300  1.0000
  O2          0.68631      0.35368      0.75485  1.0000
  O1          0.63709      0.29244      0.08287  1.0000
  O2          0.69330      0.33489      0.43370  1.0000
  O2          0.37620      0.33756      0.96867  1.0000
  O1          0.64964      0.03119      0.32481  1.0000
  O2          0.96845      0.63284      0.64676  1.0000
  O2          0.62749      0.67127      0.48430  1.0000
  O2          0.34201      0.95835      0.80581  1.0000
  O1          0.06822      0.36139      0.12891  1.0000
  O2          0.35149      0.37403      0.37681  1.0000
  O1          0.03991      0.64267      0.02198  1.0000
  O2          0.63815      0.96341      0.69876  1.0000
  O2          0.68067      0.62432      0.86291  1.0000
  O2          0.96390      0.33619      0.54016  1.0000
  O1          0.37318      0.06009      0.21787  1.0000
  O1          0.78293      0.31720      0.00544  1.0000
  O2          0.71161      0.47770      0.36206  1.0000
  O2          0.54508      0.23436      0.68280  1.0000
  O2          0.23234      0.70005      0.52016  1.0000
  O2          0.32058      0.53830      0.84253  1.0000
  O1          0.48169      0.75941      0.19807  1.0000
  O1          0.33885      0.77782      0.34257  1.0000
  O2          0.48271      0.69981      0.98525  1.0000
  O2          0.23983      0.54041      0.66281  1.0000
  O2          0.70577      0.22800      0.82513  1.0000
  O2          0.54205      0.31140      0.50355  1.0000
  O1          0.76593      0.47801      0.14934  1.0000
  O1          0.77621      0.53708      0.04224  1.0000
  O2          0.48657      0.25376      0.37781  1.0000
  O2          0.76007      0.21906      0.69897  1.0000
  O2          0.21847      0.46939      0.53710  1.0000
  O2          0.55187      0.75131      0.86004  1.0000
  O1          0.25223      0.78351      0.19998  1.0000
  O1          0.54700      0.76801      0.30029  1.0000
  O2          0.25891      0.47547      0.96782  1.0000
  O2          0.22381      0.75481      0.64625  1.0000
  O2          0.47519      0.21322      0.80872  1.0000
  O2          0.75444      0.54192      0.48772  1.0000
  O1          0.79284      0.25405      0.14926  1.0000
  O2          0.24260      0.33237      0.89624  1.0000
  O1          0.70391      0.95937      0.24054  1.0000
  O2          0.09809      0.77141      0.57463  1.0000
  O2          0.77790      0.68531      0.41512  1.0000
  O2          0.33672      0.09435      0.73536  1.0000
  O1          0.87510      0.19650      0.06725  1.0000
  O2          0.33951      0.23328      0.44884  1.0000
  O1          0.96491      0.69213      0.10701  1.0000
  O2          0.77719      0.09412      0.77057  1.0000
  O2          0.69233      0.76759      0.93325  1.0000
  O2          0.10018      0.33169      0.61065  1.0000
  O1          0.20692      0.86859      0.28490  1.0000
  O2          0.59900      0.55878      0.98730  1.0000
  O1          0.42930      0.04993      0.33124  1.0000
  O2          0.98524      0.42250      0.66611  1.0000
  O2          0.41728      0.44265      0.50229  1.0000
  O2          0.56958      0.97353      0.82475  1.0000
  O1          0.02697      0.54909      0.16500  1.0000
  O2          0.57406      0.59866      0.35978  1.0000
  O1          0.05475      0.41674      0.01552  1.0000
  O2          0.42683      0.97921      0.67970  1.0000
  O2          0.45230      0.41545      0.84282  1.0000
  O2          0.97789      0.56328      0.52061  1.0000
  O1          0.56535      0.02057      0.18118  1.0000
  O1          0.61173      0.18052      0.26117  1.0000
  O2          0.84760      0.42518      0.59441  1.0000
  O2          0.58535      0.41524      0.91583  1.0000
  O2          0.43048      0.84203      0.75154  1.0000
  O1          0.18803      0.59956      0.08472  1.0000
  O2          0.42337      0.58069      0.42993  1.0000
  F           0.43160      0.90188      0.26206  1.0000
  F           0.10477      0.55395      0.59187  1.0000
  F           0.46383      0.55305      0.91556  1.0000
  F           0.55923      0.09950      0.75304  1.0000
  F           0.90905      0.42974      0.08309  1.0000
  F           0.56002      0.45757      0.43071  1.0000
