data_cif

_audit_creation_method             'generated by GULP'

_symmetry_space_group_name_H-M     'P 1'
_symmetry_Int_Tables_number        1
_symmetry_cell_setting             triclinic

_cell_length_a                       12.1021
_cell_length_b                       12.1138
_cell_length_c                       30.0642
_cell_angle_alpha                   90.0773
_cell_angle_beta                    89.8968
_cell_angle_gamma                  119.8206

loop_
_atom_site_label
_atom_site_fract_x
_atom_site_fract_y
_atom_site_fract_z
_atom_site_occupancy
  Si          0.69960      0.37570      0.03389  1.0000
  Si          0.59963      0.32006      0.35415  1.0000
  Ge          0.67026      0.31390      0.69996  1.0000
  Ge          0.29465      0.62077      0.52502  1.0000
  Si          0.34766      0.66820      0.87251  1.0000
  Si          0.31137      0.70002      0.19619  1.0000
  Si          0.36764      0.70499      0.29493  1.0000
  Si          0.31202      0.61123      0.97340  1.0000
  Ge          0.29244      0.67634      0.62747  1.0000
  Ge          0.61408      0.32643      0.80448  1.0000
  Si          0.65545      0.36923      0.45264  1.0000
  Si          0.69293      0.31716      0.13253  1.0000
  Si          0.52818      0.41047      0.96890  1.0000
  Si          0.56625      0.10814      0.29258  1.0000
  Ge          0.86150      0.47861      0.62464  1.0000
  Si          0.46520      0.58343      0.45647  1.0000
  Ge          0.40682      0.88312      0.80776  1.0000
  Si          0.09832      0.52054      0.13565  1.0000
  Si          0.40671      0.53077      0.35685  1.0000
  Si          0.09964      0.57245      0.03617  1.0000
  Ge          0.45061      0.87717      0.70275  1.0000
  Ge          0.54791      0.48292      0.87253  1.0000
  Ge          0.86434      0.42373      0.52054  1.0000
  Si          0.51346      0.10320      0.19282  1.0000
  Si          0.27142      0.38820      0.85345  1.0000
  Si          0.58567      0.89738      0.18062  1.0000
  Ge          0.09302      0.70703      0.50960  1.0000
  Si          0.68232      0.59724      0.34115  1.0000
  Ge          0.38122      0.09903      0.68714  1.0000
  Si          0.89765      0.29671      0.02047  1.0000
  Si          0.38246      0.30148      0.46871  1.0000
  Si          0.89096      0.59273      0.14779  1.0000
  Ge          0.68986      0.11886      0.82301  1.0000
  Si          0.59414      0.69396      0.98275  1.0000
  Ge          0.07234      0.39747      0.64465  1.0000
  Si          0.28854      0.90353      0.30724  1.0000
  Si          0.24600      0.33109      0.95512  1.0000
  Si          0.64595      0.90978      0.27941  1.0000
  Ge          0.08163      0.75797      0.61107  1.0000
  Si          0.73983      0.65098      0.43990  1.0000
  Ge          0.32944      0.09288      0.79174  1.0000
  Si          0.90029      0.24433      0.11952  1.0000
  Si          0.32251      0.25162      0.36992  1.0000
  Si          0.90284      0.65334      0.04888  1.0000
  Ge          0.72445      0.09513      0.72275  1.0000
  Si          0.63740      0.75825      0.88191  1.0000
  Ge          0.06743      0.33890      0.54148  1.0000
  Si          0.23742      0.90561      0.20809  1.0000
  Si          0.97079      0.11824      0.97231  1.0000
  Si          0.86269      0.84675      0.29312  1.0000
  Ge          0.13788      0.03886      0.62772  1.0000
  Si          0.01756      0.87524      0.45421  1.0000
  Ge          0.09799      0.14350      0.80187  1.0000
  Si          0.83435      0.96384      0.13241  1.0000
  Si          0.10756      0.97332      0.35553  1.0000
  Si          0.84191      0.87148      0.03374  1.0000
  Ge          0.00672      0.14980      0.69861  1.0000
  Ge          0.86328      0.04433      0.87260  1.0000
  Ge          0.13216      0.11551      0.52033  1.0000
  Si          0.95767      0.84212      0.19486  1.0000
  O2          0.92535      0.99409      0.00314  1.0000
  O2          0.98516      0.92767      0.32395  1.0000
  O1          0.04697      0.08963      0.65333  1.0000
  O3          0.03932      0.98931      0.48600  1.0000
  O1          0.96291      0.05290      0.83101  1.0000
  O2          0.91370      0.91896      0.16269  1.0000
  O2          0.33123      0.58369      0.32679  1.0000
  O1          0.40938      0.75240      0.66690  1.0000
  O2          0.22851      0.64634      0.00611  1.0000
  O1          0.64038      0.45203      0.83526  1.0000
  O2          0.56651      0.22975      0.16189  1.0000
  O3          0.73575      0.33233      0.48516  1.0000
  O2          0.57587      0.33931      0.00322  1.0000
  O1          0.73980      0.43631      0.66194  1.0000
  O2          0.63851      0.23564      0.32256  1.0000
  O3          0.42378      0.65931      0.48915  1.0000
  O2          0.22392      0.57297      0.16665  1.0000
  O3          0.31078      0.75387      0.84342  1.0000
  O2          0.12373      0.21035      0.97797  1.0000
  O2          0.77199      0.90945      0.29806  1.0000
  O1          0.07837      0.88107      0.63867  1.0000
  O2          0.86644      0.77222      0.45885  1.0000
  O1          0.20057      0.09131      0.81613  1.0000
  O2          0.89741      0.11669      0.13805  1.0000
  O2          0.19663      0.12653      0.35036  1.0000
  O2          0.90383      0.78000      0.03008  1.0000
  O1          0.84914      0.07565      0.70049  1.0000
  O3          0.74212      0.89042      0.86343  1.0000
  O1          0.05837      0.20256      0.51965  1.0000
  O2          0.11027      0.90350      0.18908  1.0000
  O2          0.91703      0.85868      0.24377  1.0000
  O1          0.13665      0.05916      0.57155  1.0000
  O3          0.93999      0.06715      0.92285  1.0000
  O1          0.07661      0.13076      0.74593  1.0000
  O2          0.84622      0.92369      0.08271  1.0000
  O2          0.05422      0.93308      0.40467  1.0000
  O2          0.89998      0.19872      0.98369  1.0000
  O2          0.78051      0.69687      0.30446  1.0000
  O1          0.29162      0.11663      0.64640  1.0000
  O3          0.09990      0.81254      0.46747  1.0000
  O3          0.16078      0.30147      0.81923  1.0000
  O2          0.68441      0.89612      0.14390  1.0000
  O2          0.19110      0.90627      0.34379  1.0000
  O2          0.69392      0.79031      0.01931  1.0000
  O1          0.07250      0.31068      0.68950  1.0000
  O1          0.79392      0.13371      0.86643  1.0000
  O3          0.29183      0.20747      0.50631  1.0000
  O2          0.88979      0.69124      0.18430  1.0000
  O2          0.31218      0.64678      0.24579  1.0000
  O1          0.35644      0.70188      0.57444  1.0000
  O2          0.30786      0.66424      0.92442  1.0000
  O1          0.64334      0.37047      0.74886  1.0000
  O2          0.64144      0.31823      0.08265  1.0000
  O2          0.65565      0.31519      0.40290  1.0000
  O2          0.37129      0.32613      0.97066  1.0000
  O2          0.65446      0.04138      0.29637  1.0000
  O1          0.92624      0.63848      0.61621  1.0000
  O2          0.62023      0.66222      0.45887  1.0000
  O1          0.30603      0.94220      0.79817  1.0000
  O2          0.03053      0.36562      0.13798  1.0000
  O2          0.31701      0.37638      0.35297  1.0000
  O2          0.03390      0.66114      0.03113  1.0000
  O1          0.61038      0.96672      0.69339  1.0000
  O3          0.65681      0.64863      0.86232  1.0000
  O1          0.95341      0.35098      0.51209  1.0000
  O2          0.35866      0.03536      0.18912  1.0000
  O2          0.76737      0.30110      0.01145  1.0000
  O2          0.67604      0.46193      0.33215  1.0000
  O1          0.53121      0.21176      0.67268  1.0000
  O1          0.21584      0.68231      0.49535  1.0000
  O2          0.27584      0.52510      0.85274  1.0000
  O2          0.45245      0.76512      0.17332  1.0000
  O2          0.29136      0.77250      0.31574  1.0000
  O2          0.45694      0.68361      0.99198  1.0000
  O1          0.22717      0.51890      0.64097  1.0000
  O1          0.71351      0.26956      0.82076  1.0000
  O2          0.51443      0.29960      0.47481  1.0000
  O2          0.75877      0.45929      0.15423  1.0000
  O2          0.77900      0.53019      0.02889  1.0000
  O2          0.44517      0.24860      0.34991  1.0000
  O1          0.76580      0.24632      0.70331  1.0000
  O1          0.21980      0.45882      0.53095  1.0000
  O2          0.50100      0.74181      0.86559  1.0000
  O2          0.23689      0.77992      0.18968  1.0000
  O2          0.52181      0.78763      0.29954  1.0000
  O2          0.25339      0.45942      0.97373  1.0000
  O1          0.19500      0.73899      0.63831  1.0000
  O1          0.46458      0.20163      0.81759  1.0000
  O2          0.73683      0.52417      0.45811  1.0000
  O2          0.77629      0.24636      0.13815  1.0000
  O2          0.22141      0.31659      0.90207  1.0000
  O2          0.66013      0.90465      0.22612  1.0000
  O1          0.12033      0.80032      0.55621  1.0000
  O2          0.75453      0.66715      0.38649  1.0000
  O1          0.33132      0.13172      0.73660  1.0000
  O2          0.89963      0.22749      0.06617  1.0000
  O2          0.30510      0.23317      0.42321  1.0000
  O2          0.89892      0.66718      0.10210  1.0000
  O1          0.75995      0.08789      0.77836  1.0000
  O2          0.65160      0.76493      0.93630  1.0000
  O1          0.03262      0.30558      0.59710  1.0000
  O2          0.22043      0.90627      0.26128  1.0000
  O2          0.58053      0.55558      0.98758  1.0000
  O2          0.42715      0.02571      0.31548  1.0000
  O1          0.96788      0.45084      0.65391  1.0000
  O2          0.39952      0.44077      0.47762  1.0000
  O1          0.54066      0.99286      0.83550  1.0000
  O2          0.01218      0.57491      0.15755  1.0000
  O2          0.54514      0.58613      0.33321  1.0000
  O2          0.02268      0.43418      0.01200  1.0000
  O1          0.36357      0.94948      0.68796  1.0000
  O3          0.40222      0.39762      0.83939  1.0000
  O1          0.94235      0.57957      0.50436  1.0000
  O2          0.57085      0.02026      0.17022  1.0000
  O2          0.56515      0.15664      0.24236  1.0000
  O1          0.80780      0.39951      0.57473  1.0000
  O3          0.57680      0.40843      0.92034  1.0000
  O1          0.42627      0.82518      0.75799  1.0000
  O2          0.15108      0.57323      0.08591  1.0000
  O2          0.41122      0.58409      0.40674  1.0000
  F           0.43771      0.90020      0.24270  1.0000
  F           0.08772      0.56168      0.57015  1.0000
  F           0.45576      0.52763      0.90982  1.0000
  F           0.56321      0.09887      0.75123  1.0000
  F           0.89632      0.44657      0.08221  1.0000
  F           0.53354      0.44694      0.40446  1.0000
