data_cif

_audit_creation_method             'generated by GULP'

_symmetry_space_group_name_H-M     'P 1'
_symmetry_Int_Tables_number        1
_symmetry_cell_setting             triclinic

_cell_length_a                       12.0820
_cell_length_b                       12.1665
_cell_length_c                       30.1742
_cell_angle_alpha                   89.9911
_cell_angle_beta                    89.2632
_cell_angle_gamma                  120.2891

loop_
_atom_site_label
_atom_site_fract_x
_atom_site_fract_y
_atom_site_fract_z
_atom_site_occupancy
  Si          0.69960      0.37570      0.03389  1.0000
  Si          0.61303      0.32963      0.35454  1.0000
  Ge          0.68623      0.31286      0.68589  1.0000
  Si          0.28058      0.61337      0.51678  1.0000
  Ge          0.36881      0.68324      0.86177  1.0000
  Si          0.32849      0.71425      0.19692  1.0000
  Si          0.37924      0.71221      0.29522  1.0000
  Ge          0.30272      0.62692      0.96456  1.0000
  Si          0.28892      0.66868      0.61706  1.0000
  Ge          0.62087      0.30042      0.78887  1.0000
  Si          0.66434      0.38169      0.45288  1.0000
  Si          0.70994      0.32943      0.13407  1.0000
  Ge          0.54338      0.43020      0.96748  1.0000
  Si          0.58131      0.11674      0.29512  1.0000
  Ge          0.90312      0.48059      0.61397  1.0000
  Si          0.45889      0.57936      0.45400  1.0000
  Ge          0.38339      0.86814      0.78705  1.0000
  Si          0.12616      0.54286      0.13252  1.0000
  Si          0.41100      0.53150      0.35492  1.0000
  Ge          0.08449      0.57243      0.03626  1.0000
  Ge          0.44387      0.87939      0.68389  1.0000
  Ge          0.59855      0.47214      0.86224  1.0000
  Si          0.86512      0.41048      0.51764  1.0000
  Si          0.53261      0.11560      0.19615  1.0000
  Ge          0.30649      0.39765      0.84514  1.0000
  Si          0.60663      0.91319      0.18236  1.0000
  Si          0.08117      0.69452      0.50408  1.0000
  Si          0.69049      0.60489      0.34106  1.0000
  Ge          0.39048      0.10576      0.67270  1.0000
  Si          0.90310      0.29703      0.01597  1.0000
  Si          0.38614      0.30268      0.46715  1.0000
  Si          0.90967      0.60985      0.14659  1.0000
  Ge          0.67339      0.07562      0.80860  1.0000
  Ge          0.59687      0.71260      0.98139  1.0000
  Si          0.08371      0.38655      0.63486  1.0000
  Si          0.30134      0.90981      0.30882  1.0000
  Ge          0.25084      0.34047      0.94783  1.0000
  Si          0.66027      0.91941      0.28103  1.0000
  Si          0.08885      0.75718      0.60407  1.0000
  Si          0.73791      0.66028      0.43964  1.0000
  Ge          0.32845      0.08768      0.77443  1.0000
  Si          0.92427      0.26172      0.11695  1.0000
  Si          0.33223      0.25512      0.36859  1.0000
  Si          0.90005      0.66425      0.04664  1.0000
  Ge          0.73224      0.07757      0.70611  1.0000
  Ge          0.64717      0.74085      0.88089  1.0000
  Si          0.06623      0.33070      0.53384  1.0000
  Si          0.25379      0.91797      0.21023  1.0000
  Ge          0.96557      0.11447      0.96571  1.0000
  Si          0.87497      0.85460      0.29340  1.0000
  Si          0.15305      0.03963      0.61653  1.0000
  Si          0.01726      0.87740      0.45521  1.0000
  Ge          0.11296      0.15618      0.79049  1.0000
  Si          0.85724      0.98364      0.13256  1.0000
  Si          0.11728      0.97506      0.35666  1.0000
  Si          0.83529      0.88223      0.03457  1.0000
  Ge          0.02212      0.13938      0.68458  1.0000
  Ge          0.86455      0.02599      0.86217  1.0000
  Si          0.13672      0.12122      0.51759  1.0000
  Si          0.97503      0.85739      0.19493  1.0000
  O3          0.92340      0.98174      0.99723  1.0000
  O2          0.99601      0.92968      0.32508  1.0000
  O3          0.05135      0.04929      0.64749  1.0000
  O2          0.05675      0.99662      0.48733  1.0000
  O1          0.97429      0.09946      0.81962  1.0000
  O2          0.93582      0.93655      0.16229  1.0000
  O2          0.33817      0.58617      0.32511  1.0000
  O3          0.40737      0.75076      0.64744  1.0000
  O1          0.21256      0.65861      0.99928  1.0000
  O1          0.67519      0.42017      0.82778  1.0000
  O2          0.58719      0.24312      0.16555  1.0000
  O2          0.74949      0.34135      0.48223  1.0000
  O3          0.58044      0.33837      0.00356  1.0000
  O1          0.77369      0.43514      0.65095  1.0000
  O2          0.65415      0.24437      0.32479  1.0000
  O2          0.40327      0.65047      0.48500  1.0000
  O2          0.24273      0.58897      0.16740  1.0000
  O1          0.30802      0.74051      0.82277  1.0000
  O1          0.12478      0.21328      0.97455  1.0000
  O2          0.78567      0.91809      0.29953  1.0000
  O2          0.11402      0.89209      0.62062  1.0000
  O2          0.86299      0.78592      0.45886  1.0000
  O1          0.19972      0.08569      0.80204  1.0000
  O2          0.92022      0.13649      0.13831  1.0000
  O2          0.20670      0.12789      0.35026  1.0000
  O2          0.87659      0.77574      0.03090  1.0000
  O1          0.86148      0.07413      0.68257  1.0000
  O1          0.79140      0.86879      0.85806  1.0000
  O2          0.07186      0.20981      0.51306  1.0000
  O2          0.12903      0.91916      0.19103  1.0000
  O2          0.92944      0.86972      0.24373  1.0000
  O2          0.13132      0.07405      0.56692  1.0000
  O1          0.94783      0.08727      0.91057  1.0000
  O1          0.07328      0.13143      0.73546  1.0000
  O2          0.86963      0.95067      0.08226  1.0000
  O2          0.06342      0.93465      0.40627  1.0000
  O3          0.87858      0.18641      0.98198  1.0000
  O2          0.79048      0.70413      0.30417  1.0000
  O3          0.29614      0.12438      0.63154  1.0000
  O2          0.08206      0.79276      0.46715  1.0000
  O1          0.21008      0.31512      0.80169  1.0000
  O2          0.70674      0.91382      0.14575  1.0000
  O2          0.20136      0.90885      0.34560  1.0000
  O3          0.68781      0.81807      0.02456  1.0000
  O3          0.10415      0.29964      0.66943  1.0000
  O1          0.75582      0.07631      0.85446  1.0000
  O2          0.28641      0.20339      0.50361  1.0000
  O2          0.90928      0.70753      0.18340  1.0000
  O2          0.32706      0.65874      0.24600  1.0000
  O2          0.33232      0.66518      0.56582  1.0000
  O1          0.33679      0.71191      0.91515  1.0000
  O1          0.65405      0.36296      0.73622  1.0000
  O2          0.65748      0.32918      0.08510  1.0000
  O2          0.66556      0.32829      0.40364  1.0000
  O1          0.38151      0.36049      0.97623  1.0000
  O2          0.66905      0.04998      0.29868  1.0000
  O3          0.95802      0.64653      0.62387  1.0000
  O2          0.61408      0.66714      0.45789  1.0000
  O1          0.28544      0.93155      0.78321  1.0000
  O2          0.05406      0.38596      0.13347  1.0000
  O2          0.32317      0.37691      0.35102  1.0000
  O3          0.02944      0.68348      0.02626  1.0000
  O1          0.60647      0.96525      0.67601  1.0000
  O1          0.69443      0.63327      0.86565  1.0000
  O2          0.93715      0.32564      0.51659  1.0000
  O2          0.37764      0.04863      0.19194  1.0000
  O2          0.77331      0.30632      0.01398  1.0000
  O2          0.68941      0.47235      0.33294  1.0000
  O1          0.54108      0.22230      0.65918  1.0000
  O2          0.21043      0.68636      0.49699  1.0000
  O1          0.28238      0.52318      0.85056  1.0000
  O2          0.47191      0.78240      0.17458  1.0000
  O2          0.30275      0.77847      0.31663  1.0000
  O1          0.44509      0.67700      0.99293  1.0000
  O2          0.21460      0.52500      0.63665  1.0000
  O1          0.70786      0.22955      0.80219  1.0000
  O2          0.52071      0.30661      0.47490  1.0000
  O2          0.78019      0.47259      0.15386  1.0000
  O2          0.78067      0.52971      0.02987  1.0000
  O2          0.45824      0.25733      0.34886  1.0000
  O1          0.76082      0.22837      0.69872  1.0000
  O2          0.18865      0.46087      0.51573  1.0000
  O1          0.53159      0.75230      0.85085  1.0000
  O2          0.25392      0.79383      0.19139  1.0000
  O2          0.53403      0.79549      0.30059  1.0000
  O1          0.23008      0.46837      0.95129  1.0000
  O2          0.20681      0.74037      0.62090  1.0000
  O1          0.45929      0.20554      0.80134  1.0000
  O2          0.73776      0.53587      0.45830  1.0000
  O2          0.80235      0.26962      0.13522  1.0000
  O1          0.25747      0.30490      0.89304  1.0000
  O2          0.67751      0.91724      0.22796  1.0000
  O2          0.08403      0.76195      0.55001  1.0000
  O2          0.75755      0.67748      0.38651  1.0000
  O1          0.32061      0.12594      0.71986  1.0000
  O2          0.91912      0.24264      0.06415  1.0000
  O2          0.31524      0.23567      0.42158  1.0000
  O2          0.90584      0.67377      0.10065  1.0000
  O1          0.72444      0.03390      0.76084  1.0000
  O1          0.67031      0.80246      0.93477  1.0000
  O2          0.06834      0.31613      0.58669  1.0000
  O2          0.23433      0.91525      0.26334  1.0000
  O1          0.62036      0.58400      0.98506  1.0000
  O2          0.44015      0.03270      0.31789  1.0000
  O3          0.95963      0.39354      0.64669  1.0000
  O2          0.39873      0.43936      0.47654  1.0000
  O1          0.51529      0.96849      0.81836  1.0000
  O2          0.03218      0.59282      0.15249  1.0000
  O2          0.55202      0.58956      0.33190  1.0000
  O3          0.02759      0.42750      0.00376  1.0000
  O1          0.36608      0.95483      0.66534  1.0000
  O1          0.46108      0.43781      0.83350  1.0000
  O2          0.95878      0.55486      0.49784  1.0000
  O2          0.59389      0.03730      0.17305  1.0000
  O2          0.58310      0.16852      0.24538  1.0000
  O3          0.80652      0.40695      0.56499  1.0000
  O1          0.57794      0.40325      0.91458  1.0000
  O1          0.40138      0.81252      0.73628  1.0000
  O3          0.18252      0.59697      0.08487  1.0000
  O2          0.40885      0.58167      0.40462  1.0000
  F           0.45446      0.91397      0.24484  1.0000
  F           0.04418      0.52841      0.57732  1.0000
  F           0.48888      0.58100      0.91123  1.0000
  F           0.50858      0.07501      0.73685  1.0000
  F           0.94410      0.47959      0.07295  1.0000
  F           0.53758      0.45560      0.40412  1.0000
