data_cif

_audit_creation_method             'generated by GULP'

_symmetry_space_group_name_H-M     'P 1'
_symmetry_Int_Tables_number        1
_symmetry_cell_setting             triclinic

_cell_length_a                       12.1236
_cell_length_b                       12.1143
_cell_length_c                       30.0533
_cell_angle_alpha                   90.2711
_cell_angle_beta                    89.9968
_cell_angle_gamma                  120.1430

loop_
_atom_site_label
_atom_site_fract_x
_atom_site_fract_y
_atom_site_fract_z
_atom_site_occupancy
  Ge          0.69960      0.37570      0.03389  1.0000
  Si          0.65936      0.35975      0.38241  1.0000
  Si          0.70814      0.32951      0.70365  1.0000
  Si          0.31542      0.64915      0.53811  1.0000
  Si          0.41510      0.70910      0.86093  1.0000
  Ge          0.33605      0.71897      0.20607  1.0000
  Ge          0.39636      0.70870      0.30701  1.0000
  Si          0.34240      0.65778      0.96108  1.0000
  Si          0.32535      0.70986      0.63676  1.0000
  Si          0.64919      0.32025      0.80240  1.0000
  Si          0.70176      0.41449      0.48132  1.0000
  Ge          0.70536      0.32893      0.13623  1.0000
  Si          0.54419      0.43264      0.96719  1.0000
  Ge          0.59511      0.14670      0.31626  1.0000
  Si          0.92140      0.50670      0.64265  1.0000
  Si          0.48853      0.60771      0.47589  1.0000
  Si          0.45147      0.91902      0.79788  1.0000
  Ge          0.14353      0.54711      0.13106  1.0000
  Si          0.44555      0.54892      0.37609  1.0000
  Ge          0.12449      0.58539      0.02621  1.0000
  Si          0.50422      0.92365      0.69801  1.0000
  Si          0.61197      0.49396      0.86628  1.0000
  Si          0.91361      0.45016      0.54292  1.0000
  Ge          0.53709      0.14608      0.21186  1.0000
  Si          0.33252      0.42748      0.84887  1.0000
  Ge          0.62211      0.93910      0.18946  1.0000
  Si          0.11712      0.72824      0.52621  1.0000
  Si          0.72792      0.63220      0.36631  1.0000
  Si          0.43250      0.13087      0.68669  1.0000
  Ge          0.90737      0.29514      0.01650  1.0000
  Si          0.42323      0.33140      0.49112  1.0000
  Ge          0.92543      0.61704      0.15047  1.0000
  Si          0.72867      0.12288      0.81374  1.0000
  Ge          0.60653      0.70620      0.97007  1.0000
  Si          0.12797      0.43547      0.65351  1.0000
  Ge          0.31753      0.91186      0.32387  1.0000
  Si          0.26790      0.37152      0.94857  1.0000
  Ge          0.68128      0.94290      0.29264  1.0000
  Si          0.11928      0.78270      0.62552  1.0000
  Si          0.76817      0.69039      0.46552  1.0000
  Si          0.37172      0.11633      0.78554  1.0000
  Ge          0.92542      0.26924      0.11773  1.0000
  Si          0.37614      0.27376      0.39191  1.0000
  Ge          0.91859      0.66993      0.04748  1.0000
  Si          0.78128      0.12256      0.71460  1.0000
  Si          0.69862      0.77874      0.87677  1.0000
  Si          0.11154      0.37056      0.55486  1.0000
  Ge          0.25423      0.92847      0.22573  1.0000
  Si          0.99108      0.13693      0.96032  1.0000
  Ge          0.89994      0.87926      0.31172  1.0000
  Si          0.18331      0.06285      0.63870  1.0000
  Si          0.04356      0.90619      0.47849  1.0000
  Si          0.15549      0.17914      0.79856  1.0000
  Ge          0.85809      0.98589      0.13037  1.0000
  Ge          0.14846      0.99013      0.37812  1.0000
  Ge          0.85985      0.89517      0.02385  1.0000
  Si          0.06134      0.18674      0.70057  1.0000
  Si          0.90965      0.05261      0.86015  1.0000
  Si          0.17440      0.15384      0.54042  1.0000
  Ge          0.96902      0.85836      0.20520  1.0000
  O3          0.96906      0.02250      0.99131  1.0000
  O1          0.04006      0.97267      0.33762  1.0000
  O2          0.10396      0.10710      0.66939  1.0000
  O2          0.09311      0.03134      0.50942  1.0000
  O2          0.03268      0.09965      0.82905  1.0000
  O1          0.90377      0.90153      0.16378  1.0000
  O3          0.36655      0.58257      0.34208  1.0000
  O2          0.45284      0.79873      0.66626  1.0000
  O3          0.24431      0.68207      0.98809  1.0000
  O2          0.68472      0.43982      0.83578  1.0000
  O1          0.58633      0.27038      0.17531  1.0000
  O2          0.78408      0.37576      0.51364  1.0000
  O3          0.57549      0.34194      0.99620  1.0000
  O2          0.79687      0.45634      0.67451  1.0000
  O3          0.69496      0.27646      0.35056  1.0000
  O2          0.43491      0.68333      0.50544  1.0000
  O1          0.27389      0.60354      0.16506  1.0000
  O2          0.37807      0.79089      0.82805  1.0000
  O2          0.14046      0.24861      0.96620  1.0000
  O1          0.80781      0.94691      0.31975  1.0000
  O2          0.12251      0.91034      0.64470  1.0000
  O2          0.89117      0.81573      0.48677  1.0000
  O2          0.24494      0.11597      0.80386  1.0000
  O1          0.93564      0.14292      0.14244  1.0000
  O3          0.25501      0.15278      0.37201  1.0000
  O1          0.92155      0.79433      0.02094  1.0000
  O2          0.90833      0.12537      0.69548  1.0000
  O2          0.81910      0.89992      0.85242  1.0000
  O2          0.11094      0.24372      0.53640  1.0000
  O1          0.13091      0.94098      0.20198  1.0000
  O1          0.91172      0.87516      0.25489  1.0000
  O2          0.16751      0.10094      0.58949  1.0000
  O2          0.96403      0.08841      0.90946  1.0000
  O2          0.10317      0.17168      0.74950  1.0000
  O1          0.87965      0.94974      0.07762  1.0000
  O3          0.07100      0.95512      0.42893  1.0000
  O3          0.90175      0.19234      0.97385  1.0000
  O3          0.82551      0.72178      0.32919  1.0000
  O2          0.33420      0.13266      0.65021  1.0000
  O2          0.11338      0.82444      0.48941  1.0000
  O2          0.23896      0.32929      0.81135  1.0000
  O1          0.69932      0.93114      0.14333  1.0000
  O1          0.21622      0.90268      0.36853  1.0000
  O1          0.70476      0.81785      0.01107  1.0000
  O2          0.13037      0.33758      0.69008  1.0000
  O2          0.82722      0.12146      0.85012  1.0000
  O2          0.32345      0.23567      0.52797  1.0000
  O1          0.92269      0.70055      0.19609  1.0000
  O1          0.30829      0.65109      0.25850  1.0000
  O2          0.37682      0.70753      0.58688  1.0000
  O2          0.35800      0.70993      0.90967  1.0000
  O2          0.70685      0.38124      0.75382  1.0000
  O1          0.64136      0.29277      0.08270  1.0000
  O2          0.71006      0.35948      0.43259  1.0000
  O2          0.38823      0.36230      0.96718  1.0000
  O1          0.66208      0.05189      0.32252  1.0000
  O2          0.99021      0.66199      0.64528  1.0000
  O2          0.64293      0.69636      0.48104  1.0000
  O2          0.36306      0.98498      0.80278  1.0000
  O1          0.08087      0.38512      0.12828  1.0000
  O2          0.36781      0.39479      0.37357  1.0000
  O1          0.02359      0.64268      0.01791  1.0000
  O2          0.65935      0.99246      0.69565  1.0000
  O2          0.69977      0.64840      0.86270  1.0000
  O2          0.97927      0.36141      0.53846  1.0000
  O1          0.37642      0.08257      0.21794  1.0000
  O1          0.78443      0.32126      0.00430  1.0000
  O2          0.73056      0.50059      0.36023  1.0000
  O2          0.56649      0.26409      0.68117  1.0000
  O2          0.24766      0.72465      0.51728  1.0000
  O2          0.34128      0.56370      0.84159  1.0000
  O1          0.49570      0.78749      0.19598  1.0000
  O1          0.33767      0.78683      0.33837  1.0000
  O3          0.47579      0.72721      0.98598  1.0000
  O2          0.26113      0.56937      0.65992  1.0000
  O2          0.72462      0.25295      0.82359  1.0000
  O2          0.55807      0.33863      0.50177  1.0000
  O1          0.77447      0.48961      0.14646  1.0000
  O1          0.77086      0.53506      0.04508  1.0000
  O2          0.50470      0.27751      0.37488  1.0000
  O2          0.78005      0.24767      0.69719  1.0000
  O2          0.23318      0.49437      0.53406  1.0000
  O2          0.56823      0.77189      0.85876  1.0000
  O1          0.26634      0.81135      0.19677  1.0000
  O1          0.55666      0.78902      0.29711  1.0000
  O2          0.27331      0.50068      0.96488  1.0000
  O2          0.24579      0.78427      0.64330  1.0000
  O2          0.49428      0.24037      0.80655  1.0000
  O2          0.77114      0.56872      0.48591  1.0000
  O1          0.79987      0.26320      0.14777  1.0000
  O2          0.26389      0.36312      0.89491  1.0000
  O1          0.71477      0.98378      0.23730  1.0000
  O2          0.11661      0.79782      0.57227  1.0000
  O2          0.79323      0.70922      0.41236  1.0000
  O2          0.35762      0.12139      0.73239  1.0000
  O1          0.88814      0.20754      0.06360  1.0000
  O2          0.35723      0.25616      0.44553  1.0000
  O1          0.96430      0.70713      0.10240  1.0000
  O2          0.79794      0.12190      0.76786  1.0000
  O3          0.72110      0.80637      0.92834  1.0000
  O2          0.11826      0.35863      0.60814  1.0000
  O1          0.21232      0.89231      0.28067  1.0000
  O3          0.61128      0.57009      0.99059  1.0000
  O1          0.44032      0.06593      0.33334  1.0000
  O2          0.00611      0.45115      0.66462  1.0000
  O2          0.43147      0.46771      0.49804  1.0000
  O2          0.59039      0.99802      0.82172  1.0000
  O1          0.03921      0.57662      0.16095  1.0000
  O2          0.59002      0.61774      0.35597  1.0000
  O1          0.05613      0.42821      0.01162  1.0000
  O2          0.44991      0.00966      0.67642  1.0000
  O2          0.47255      0.44549      0.84476  1.0000
  O2          0.99424      0.58826      0.51904  1.0000
  O1          0.56563      0.04150      0.18151  1.0000
  O1          0.61497      0.20111      0.26194  1.0000
  O2          0.86636      0.45241      0.59328  1.0000
  O2          0.60134      0.44221      0.91654  1.0000
  O2          0.45119      0.86974      0.74761  1.0000
  O1          0.18867      0.61722      0.07919  1.0000
  O2          0.44080      0.60485      0.42521  1.0000
  F           0.43727      0.92320      0.26574  1.0000
  F           0.12326      0.58058      0.59086  1.0000
  F           0.50532      0.60221      0.92353  1.0000
  F           0.57905      0.12678      0.75194  1.0000
  F           0.91695      0.42879      0.08400  1.0000
  F           0.57825      0.48126      0.42840  1.0000
