data_cif

_audit_creation_method             'generated by GULP'

_symmetry_space_group_name_H-M     'P 1'
_symmetry_Int_Tables_number        1
_symmetry_cell_setting             triclinic

_cell_length_a                       12.1766
_cell_length_b                       12.0552
_cell_length_c                       30.0813
_cell_angle_alpha                   90.0010
_cell_angle_beta                    89.5034
_cell_angle_gamma                  120.1582

loop_
_atom_site_label
_atom_site_fract_x
_atom_site_fract_y
_atom_site_fract_z
_atom_site_occupancy
  Si          0.69960      0.37570      0.03389  1.0000
  Ge          0.63304      0.33013      0.36456  1.0000
  Si          0.67968      0.31115      0.71021  1.0000
  Ge          0.32491      0.64673      0.53673  1.0000
  Si          0.38127      0.66801      0.87143  1.0000
  Si          0.31688      0.69771      0.19223  1.0000
  Ge          0.38028      0.72879      0.28846  1.0000
  Si          0.32033      0.61464      0.96992  1.0000
  Ge          0.33246      0.70988      0.63951  1.0000
  Si          0.61604      0.29019      0.81068  1.0000
  Ge          0.68673      0.38698      0.46587  1.0000
  Si          0.70856      0.32565      0.13235  1.0000
  Si          0.52165      0.41042      0.97367  1.0000
  Si          0.59028      0.11416      0.29749  1.0000
  Ge          0.89416      0.46991      0.64376  1.0000
  Ge          0.49493      0.62833      0.46199  1.0000
  Si          0.41507      0.87398      0.80663  1.0000
  Si          0.10889      0.53033      0.12779  1.0000
  Ge          0.44581      0.57745      0.35656  1.0000
  Si          0.10320      0.57941      0.02843  1.0000
  Ge          0.49333      0.92600      0.71041  1.0000
  Si          0.57646      0.46217      0.87421  1.0000
  Ge          0.88454      0.41903      0.53810  1.0000
  Si          0.53581      0.11371      0.19657  1.0000
  Si          0.30182      0.38947      0.85876  1.0000
  Si          0.60148      0.89748      0.18281  1.0000
  Ge          0.10392      0.71206      0.52014  1.0000
  Ge          0.72772      0.62085      0.35211  1.0000
  Si          0.39951      0.10867      0.69090  1.0000
  Si          0.89736      0.29951      0.01707  1.0000
  Ge          0.41256      0.33707      0.48443  1.0000
  Si          0.90654      0.60443      0.14447  1.0000
  Si          0.69687      0.08938      0.82170  1.0000
  Si          0.59367      0.69084      0.98545  1.0000
  Ge          0.12316      0.41576      0.65744  1.0000
  Si          0.30015      0.91554      0.31276  1.0000
  Si          0.24692      0.33335      0.95777  1.0000
  Si          0.66468      0.90576      0.28328  1.0000
  Ge          0.09902      0.76294      0.62336  1.0000
  Ge          0.77300      0.68118      0.45286  1.0000
  Si          0.33598      0.07696      0.79210  1.0000
  Si          0.91103      0.25101      0.11574  1.0000
  Ge          0.35649      0.28590      0.38102  1.0000
  Si          0.90576      0.65686      0.04530  1.0000
  Si          0.76825      0.10991      0.72159  1.0000
  Si          0.65771      0.74144      0.88664  1.0000
  Ge          0.10406      0.36893      0.55688  1.0000
  Si          0.25398      0.91646      0.21102  1.0000
  Si          0.96613      0.11870      0.96927  1.0000
  Si          0.89466      0.86399      0.29343  1.0000
  Ge          0.15558      0.04622      0.64134  1.0000
  Ge          0.05149      0.90391      0.46581  1.0000
  Si          0.12373      0.14196      0.80834  1.0000
  Si          0.85033      0.97122      0.13138  1.0000
  Ge          0.12456      0.00159      0.36068  1.0000
  Si          0.84104      0.87257      0.03247  1.0000
  Si          0.05098      0.17377      0.71026  1.0000
  Si          0.87652      0.02125      0.87064  1.0000
  Ge          0.16658      0.14819      0.53764  1.0000
  Si          0.97845      0.85570      0.19349  1.0000
  O2          0.91807      0.99408      0.00014  1.0000
  O3          0.01622      0.96853      0.31924  1.0000
  O3          0.06405      0.08772      0.67275  1.0000
  O1          0.12922      0.04338      0.49373  1.0000
  O2          0.99643      0.06109      0.83798  1.0000
  O2          0.93700      0.93363      0.16048  1.0000
  O1          0.34729      0.60134      0.32380  1.0000
  O1          0.45424      0.80019      0.67334  1.0000
  O2          0.23064      0.65411      0.99786  1.0000
  O2          0.65052      0.40833      0.84370  1.0000
  O2          0.58820      0.23961      0.16518  1.0000
  O1          0.75736      0.33673      0.50438  1.0000
  O2          0.57300      0.33647      0.00490  1.0000
  O3          0.76427      0.43269      0.68013  1.0000
  O3          0.66607      0.23563      0.32776  1.0000
  O1          0.44588      0.70571      0.49780  1.0000
  O2          0.23829      0.58703      0.15588  1.0000
  O2          0.34309      0.75398      0.84103  1.0000
  O2          0.11804      0.20842      0.97635  1.0000
  O2          0.79638      0.91755      0.29841  1.0000
  O1          0.09740      0.88716      0.65088  1.0000
  O1          0.89586      0.80839      0.48074  1.0000
  O2          0.21277      0.07780      0.81349  1.0000
  O2          0.91147      0.12515      0.13488  1.0000
  O1          0.21464      0.16260      0.36067  1.0000
  O2          0.90279      0.78171      0.02632  1.0000
  O2          0.90428      0.13518      0.70598  1.0000
  O2          0.78549      0.86697      0.86764  1.0000
  O1          0.08487      0.22378      0.53439  1.0000
  O2          0.13181      0.91783      0.18996  1.0000
  O2          0.93465      0.86870      0.24179  1.0000
  O1          0.14352      0.06128      0.58587  1.0000
  O2          0.93266      0.06859      0.91919  1.0000
  O2          0.08066      0.13431      0.75800  1.0000
  O2          0.85552      0.92689      0.08171  1.0000
  O1          0.05318      0.94048      0.41040  1.0000
  O2          0.89716      0.20062      0.98004  1.0000
  O3          0.83948      0.72330      0.31090  1.0000
  O3          0.31422      0.13460      0.65696  1.0000
  O1          0.12013      0.81245      0.47678  1.0000
  O2          0.20474      0.29126      0.82202  1.0000
  O2          0.70238      0.90209      0.14597  1.0000
  O3          0.21890      0.93409      0.35020  1.0000
  O2          0.69076      0.78987      0.02214  1.0000
  O3          0.13564      0.32217      0.70075  1.0000
  O2          0.79239      0.08649      0.85852  1.0000
  O1          0.32629      0.25512      0.53044  1.0000
  O2          0.91073      0.70470      0.18126  1.0000
  O3          0.30577      0.63383      0.23908  1.0000
  O1          0.38473      0.67765      0.58993  1.0000
  O2          0.32404      0.66877      0.92025  1.0000
  O2          0.67130      0.34830      0.76178  1.0000
  O2          0.64764      0.32230      0.08397  1.0000
  O1          0.71280      0.34450      0.41349  1.0000
  O2          0.36684      0.32329      0.97643  1.0000
  O2          0.66891      0.03825      0.29832  1.0000
  O1          0.98721      0.63141      0.65217  1.0000
  O1          0.65666      0.72129      0.45604  1.0000
  O2          0.32997      0.94579      0.80804  1.0000
  O2          0.04176      0.37477      0.13249  1.0000
  O1          0.38448      0.41363      0.34974  1.0000
  O2          0.03531      0.66640      0.02567  1.0000
  O3          0.65986      0.98265      0.70036  1.0000
  O2          0.66539      0.61739      0.86949  1.0000
  O1          0.95050      0.32373      0.54237  1.0000
  O2          0.38200      0.04497      0.19423  1.0000
  O2          0.76455      0.29921      0.01113  1.0000
  O1          0.70174      0.47313      0.33563  1.0000
  O2          0.53816      0.23936      0.68979  1.0000
  O1          0.25311      0.73421      0.52426  1.0000
  O2          0.30738      0.52491      0.84973  1.0000
  O2          0.46530      0.77042      0.17398  1.0000
  O3          0.28866      0.78022      0.32024  1.0000
  O2          0.46073      0.69004      0.99231  1.0000
  O1          0.23943      0.56694      0.66869  1.0000
  O2          0.68796      0.21787      0.82968  1.0000
  O1          0.52944      0.29772      0.48027  1.0000
  O2          0.77620      0.46906      0.15369  1.0000
  O2          0.78068      0.53070      0.02743  1.0000
  O1          0.47141      0.24487      0.37100  1.0000
  O2          0.75361      0.23101      0.70570  1.0000
  O1          0.23286      0.48413      0.52611  1.0000
  O2          0.53563      0.74221      0.86642  1.0000
  O2          0.25644      0.79256      0.19234  1.0000
  O3          0.54614      0.78550      0.30437  1.0000
  O2          0.24830      0.45966      0.97629  1.0000
  O1          0.24747      0.78360      0.62628  1.0000
  O2          0.46399      0.19748      0.81108  1.0000
  O1          0.75558      0.54768      0.47996  1.0000
  O2          0.78767      0.25037      0.13629  1.0000
  O2          0.23157      0.31747      0.90453  1.0000
  O2          0.66443      0.89399      0.22896  1.0000
  O1          0.06006      0.75974      0.56836  1.0000
  O1          0.82107      0.68600      0.39838  1.0000
  O2          0.32580      0.08743      0.73917  1.0000
  O2          0.90619      0.23233      0.06247  1.0000
  O1          0.32324      0.29009      0.43656  1.0000
  O2          0.90722      0.67453      0.09849  1.0000
  O2          0.76789      0.09792      0.77567  1.0000
  O2          0.66955      0.75933      0.93986  1.0000
  O1          0.14119      0.34388      0.61087  1.0000
  O2          0.23993      0.92003      0.26426  1.0000
  O2          0.57664      0.55147      0.99549  1.0000
  O2          0.44732      0.03082      0.31740  1.0000
  O1          0.97116      0.39253      0.66101  1.0000
  O1          0.47020      0.49657      0.49307  1.0000
  O2          0.55743      0.96596      0.82707  1.0000
  O2          0.02958      0.58940      0.15168  1.0000
  O1          0.60641      0.65077      0.34548  1.0000
  O2          0.01853      0.43890      0.00614  1.0000
  O3          0.40780      0.98606      0.67799  1.0000
  O2          0.43882      0.40142      0.85050  1.0000
  O1          0.98920      0.55792      0.50903  1.0000
  O2          0.58547      0.02175      0.17699  1.0000
  O2          0.58442      0.15833      0.24653  1.0000
  O1          0.83570      0.43921      0.59068  1.0000
  O2          0.57533      0.41001      0.92399  1.0000
  O3          0.41619      0.82264      0.75858  1.0000
  O2          0.15631      0.57960      0.07752  1.0000
  O1          0.42109      0.60389      0.41208  1.0000
  F           0.44126      0.87197      0.25346  1.0000
  F           0.10553      0.52863      0.58664  1.0000
  F           0.45025      0.54004      0.92124  1.0000
  F           0.53767      0.06252      0.74797  1.0000
  F           0.90034      0.44955      0.08070  1.0000
  F           0.59000      0.48185      0.41162  1.0000
