data_cif

_audit_creation_method             'generated by GULP'

_symmetry_space_group_name_H-M     'P 1'
_symmetry_Int_Tables_number        1
_symmetry_cell_setting             triclinic

_cell_length_a                       12.1379
_cell_length_b                       12.1091
_cell_length_c                       30.0379
_cell_angle_alpha                   91.3720
_cell_angle_beta                    90.0422
_cell_angle_gamma                  120.1664

loop_
_atom_site_label
_atom_site_fract_x
_atom_site_fract_y
_atom_site_fract_z
_atom_site_occupancy
  Ge          0.69960      0.37570      0.03389  1.0000
  Si          0.61966      0.31393      0.37034  1.0000
  Si          0.69069      0.29036      0.69126  1.0000
  Si          0.31036      0.61118      0.53696  1.0000
  Ge          0.39280      0.70307      0.86457  1.0000
  Ge          0.34408      0.69696      0.21365  1.0000
  Si          0.38113      0.68276      0.31170  1.0000
  Ge          0.33683      0.64813      0.96553  1.0000
  Si          0.30222      0.66727      0.63569  1.0000
  Si          0.64984      0.31327      0.78944  1.0000
  Si          0.68895      0.36954      0.46877  1.0000
  Ge          0.68160      0.30983      0.13389  1.0000
  Ge          0.55024      0.42849      0.96011  1.0000
  Si          0.57908      0.10082      0.30398  1.0000
  Si          0.89969      0.46145      0.62917  1.0000
  Si          0.48856      0.57414      0.47677  1.0000
  Si          0.43415      0.90985      0.79785  1.0000
  Ge          0.12557      0.55297      0.14640  1.0000
  Si          0.42503      0.52016      0.37705  1.0000
  Ge          0.13292      0.59602      0.04073  1.0000
  Si          0.47783      0.88693      0.69790  1.0000
  Ge          0.59559      0.47415      0.85554  1.0000
  Si          0.90548      0.40793      0.52925  1.0000
  Ge          0.52377      0.08759      0.20079  1.0000
  Ge          0.31023      0.42048      0.84248  1.0000
  Si          0.61039      0.87943      0.18854  1.0000
  Si          0.11287      0.68589      0.51939  1.0000
  Si          0.69912      0.59067      0.35896  1.0000
  Si          0.41229      0.09499      0.68016  1.0000
  Ge          0.91206      0.30503      0.01917  1.0000
  Si          0.41521      0.29446      0.48684  1.0000
  Ge          0.88404      0.59596      0.15328  1.0000
  Si          0.71871      0.11164      0.80804  1.0000
  Ge          0.62346      0.72200      0.97731  1.0000
  Si          0.10378      0.38925      0.64599  1.0000
  Si          0.29416      0.88258      0.31574  1.0000
  Ge          0.26608      0.36188      0.94293  1.0000
  Si          0.66052      0.89877      0.29176  1.0000
  Si          0.09788      0.73950      0.61803  1.0000
  Si          0.76297      0.64994      0.45797  1.0000
  Si          0.36674      0.11491      0.77882  1.0000
  Ge          0.91352      0.26201      0.12129  1.0000
  Si          0.34441      0.24210      0.38803  1.0000
  Ge          0.91029      0.66176      0.05048  1.0000
  Si          0.75845      0.08362      0.70907  1.0000
  Ge          0.67691      0.76470      0.87379  1.0000
  Si          0.10376      0.33167      0.54659  1.0000
  Si          0.23714      0.87588      0.21414  1.0000
  Ge          0.98762      0.13075      0.96268  1.0000
  Si          0.87754      0.84163      0.31243  1.0000
  Si          0.16016      0.01997      0.63176  1.0000
  Si          0.04636      0.86485      0.47102  1.0000
  Si          0.14291      0.16901      0.79153  1.0000
  Ge          0.87183      0.98397      0.14216  1.0000
  Si          0.12622      0.96121      0.37223  1.0000
  Ge          0.87231      0.89908      0.03535  1.0000
  Si          0.03348      0.14116      0.69405  1.0000
  Ge          0.90068      0.04203      0.85660  1.0000
  Si          0.16748      0.11495      0.53353  1.0000
  Ge          0.96355      0.84399      0.21046  1.0000
  O1          0.96281      0.03222      0.00650  1.0000
  O2          0.99304      0.92144      0.34782  1.0000
  O2          0.07943      0.06293      0.66264  1.0000
  O2          0.09011      0.99129      0.50133  1.0000
  O3          0.04156      0.09572      0.82949  1.0000
  O1          0.95175      0.95920      0.18423  1.0000
  O2          0.35136      0.57761      0.34917  1.0000
  O2          0.42223      0.75393      0.66888  1.0000
  O1          0.26046      0.68387      0.00702  1.0000
  O3          0.68775      0.43553      0.82085  1.0000
  O1          0.55498      0.21050      0.16751  1.0000
  O2          0.77952      0.33275      0.49705  1.0000
  O1          0.57891      0.33700      0.99452  1.0000
  O2          0.77183      0.40795      0.65827  1.0000
  O2          0.65033      0.22403      0.33747  1.0000
  O2          0.43910      0.64928      0.50888  1.0000
  O1          0.24227      0.56397      0.18067  1.0000
  O3          0.35577      0.79778      0.83054  1.0000
  O1          0.14782      0.22411      0.96550  1.0000
  O2          0.78513      0.90299      0.31349  1.0000
  O2          0.09696      0.86675      0.63631  1.0000
  O2          0.89331      0.77515      0.47603  1.0000
  O2          0.24503      0.12089      0.79715  1.0000
  O1          0.92514      0.14102      0.14678  1.0000
  O2          0.21646      0.11482      0.36931  1.0000
  O1          0.92320      0.79317      0.02481  1.0000
  O2          0.88022      0.07732      0.68883  1.0000
  O1          0.80538      0.88382      0.84616  1.0000
  O2          0.10680      0.20625      0.52728  1.0000
  O3          0.11600      0.87920      0.19635  1.0000
  O3          0.94692      0.86081      0.26675  1.0000
  O2          0.14906      0.06111      0.58253  1.0000
  O1          0.92983      0.05171      0.91305  1.0000
  O2          0.07048      0.12751      0.74384  1.0000
  O1          0.89585      0.93488      0.09169  1.0000
  O2          0.09057      0.91357      0.42184  1.0000
  O1          0.91538      0.21798      0.97355  1.0000
  O2          0.79265      0.69030      0.32219  1.0000
  O2          0.31022      0.08818      0.64341  1.0000
  O2          0.11460      0.78407      0.48290  1.0000
  O3          0.21023      0.31854      0.79882  1.0000
  O3          0.70976      0.88791      0.15252  1.0000
  O2          0.20080      0.89302      0.35187  1.0000
  O1          0.71525      0.82682      0.02005  1.0000
  O2          0.10084      0.29113      0.68261  1.0000
  O3          0.81907      0.12208      0.84516  1.0000
  O2          0.31879      0.19683      0.52348  1.0000
  O1          0.86493      0.69118      0.19366  1.0000
  O3          0.32703      0.61417      0.26467  1.0000
  O2          0.36220      0.66817      0.58704  1.0000
  O1          0.30937      0.68716      0.91307  1.0000
  O2          0.70038      0.36058      0.73932  1.0000
  O1          0.62160      0.28887      0.08023  1.0000
  O2          0.68308      0.31421      0.41817  1.0000
  O1          0.39113      0.33625      0.94726  1.0000
  O2          0.66059      0.02773      0.30741  1.0000
  O2          0.96580      0.61660      0.63366  1.0000
  O2          0.64396      0.66071      0.47802  1.0000
  O2          0.35678      0.98765      0.79882  1.0000
  O1          0.05757      0.39202      0.12929  1.0000
  O2          0.33589      0.36488      0.37147  1.0000
  O1          0.03117      0.65022      0.02673  1.0000
  O2          0.63190      0.95145      0.69325  1.0000
  O1          0.65965      0.63373      0.84538  1.0000
  O2          0.97422      0.32158      0.52637  1.0000
  O3          0.35905      0.00870      0.20110  1.0000
  O1          0.78821      0.32545      0.00414  1.0000
  O2          0.69302      0.45497      0.34817  1.0000
  O2          0.54728      0.22160      0.66952  1.0000
  O2          0.24583      0.68545      0.51322  1.0000
  O1          0.33190      0.56665      0.83048  1.0000
  O3          0.48603      0.74301      0.18250  1.0000
  O2          0.30777      0.75991      0.32760  1.0000
  O1          0.49553      0.74553      0.97818  1.0000
  O2          0.23445      0.52412      0.65571  1.0000
  O2          0.72244      0.24699      0.81265  1.0000
  O2          0.54851      0.29405      0.49130  1.0000
  O1          0.73409      0.46360      0.15294  1.0000
  O1          0.76126      0.53946      0.03529  1.0000
  O2          0.46470      0.23827      0.36657  1.0000
  O2          0.76190      0.20686      0.68790  1.0000
  O2          0.23052      0.45632      0.52952  1.0000
  O1          0.55570      0.79660      0.86710  1.0000
  O3          0.23642      0.75371      0.19296  1.0000
  O2          0.53554      0.77730      0.31056  1.0000
  O1          0.27584      0.48753      0.97377  1.0000
  O2          0.21931      0.73876      0.63953  1.0000
  O2          0.49497      0.24190      0.79622  1.0000
  O2          0.76165      0.52418      0.47525  1.0000
  O1          0.78320      0.25480      0.14679  1.0000
  O1          0.21669      0.35713      0.88873  1.0000
  O2          0.67538      0.89423      0.23838  1.0000
  O2          0.10477      0.75586      0.56477  1.0000
  O2          0.77377      0.66331      0.40458  1.0000
  O2          0.34674      0.10652      0.72536  1.0000
  O1          0.87901      0.21308      0.06581  1.0000
  O2          0.33542      0.22727      0.44128  1.0000
  O1          0.92408      0.69034      0.10736  1.0000
  O2          0.78221      0.09374      0.76244  1.0000
  O1          0.71358      0.77154      0.92987  1.0000
  O2          0.10183      0.31630      0.59984  1.0000
  O2          0.22240      0.86362      0.26876  1.0000
  O1          0.57886      0.56763      0.98812  1.0000
  O2          0.43283      0.00970      0.31872  1.0000
  O2          0.98120      0.40573      0.65291  1.0000
  O2          0.43677      0.43495      0.49805  1.0000
  O2          0.57927      0.99250      0.81807  1.0000
  O1          0.99864      0.56213      0.16922  1.0000
  O2          0.56112      0.57802      0.35214  1.0000
  O1          0.06160      0.43733      0.02489  1.0000
  O2          0.42085      0.96670      0.67378  1.0000
  O1          0.43769      0.39628      0.84085  1.0000
  O2          0.99006      0.54750      0.50767  1.0000
  O3          0.58534      0.99660      0.17933  1.0000
  O3          0.58475      0.14662      0.25442  1.0000
  O2          0.85162      0.40891      0.57853  1.0000
  O1          0.62909      0.45714      0.90991  1.0000
  O2          0.43084      0.84827      0.74841  1.0000
  O1          0.17596      0.63114      0.09610  1.0000
  O2          0.43071      0.57118      0.42770  1.0000
  F           0.42707      0.84971      0.24503  1.0000
  F           0.10887      0.53922      0.58140  1.0000
  F           0.45013      0.57162      0.90579  1.0000
  F           0.56896      0.11015      0.74344  1.0000
  F           0.87166      0.44043      0.08420  1.0000
  F           0.55705      0.44090      0.42084  1.0000
