data_cif

_audit_creation_method             'generated by GULP'

_symmetry_space_group_name_H-M     'P 1'
_symmetry_Int_Tables_number        1
_symmetry_cell_setting             triclinic

_cell_length_a                       12.1391
_cell_length_b                       12.1430
_cell_length_c                       30.0836
_cell_angle_alpha                   90.6294
_cell_angle_beta                    89.5834
_cell_angle_gamma                  120.1840

loop_
_atom_site_label
_atom_site_fract_x
_atom_site_fract_y
_atom_site_fract_z
_atom_site_occupancy
  Ge          0.69960      0.37570      0.03389  1.0000
  Si          0.62540      0.34288      0.36534  1.0000
  Si          0.68099      0.31726      0.68772  1.0000
  Si          0.30003      0.63545      0.52747  1.0000
  Ge          0.39846      0.69831      0.85643  1.0000
  Si          0.33977      0.71704      0.20692  1.0000
  Si          0.39384      0.72390      0.30555  1.0000
  Ge          0.33285      0.64338      0.95779  1.0000
  Si          0.29059      0.68838      0.62575  1.0000
  Ge          0.62052      0.28957      0.78542  1.0000
  Si          0.68102      0.39774      0.46394  1.0000
  Ge          0.70188      0.32288      0.13744  1.0000
  Ge          0.55074      0.43406      0.96093  1.0000
  Si          0.58716      0.12709      0.30424  1.0000
  Si          0.89252      0.48572      0.62347  1.0000
  Si          0.47853      0.59794      0.46701  1.0000
  Si          0.41176      0.89477      0.79033  1.0000
  Ge          0.13515      0.55805      0.13713  1.0000
  Si          0.42628      0.54676      0.36722  1.0000
  Ge          0.13343      0.60701      0.03313  1.0000
  Si          0.46497      0.90200      0.68858  1.0000
  Ge          0.61090      0.47428      0.85572  1.0000
  Si          0.89525      0.43365      0.52381  1.0000
  Si          0.52889      0.11955      0.20492  1.0000
  Ge          0.33055      0.42008      0.83597  1.0000
  Si          0.61369      0.92258      0.19109  1.0000
  Si          0.10247      0.71276      0.51212  1.0000
  Si          0.70428      0.61937      0.35289  1.0000
  Si          0.39753      0.11735      0.67636  1.0000
  Ge          0.91662      0.31420      0.01695  1.0000
  Si          0.40635      0.32073      0.47945  1.0000
  Ge          0.90548      0.61562      0.15099  1.0000
  Si          0.69841      0.09777      0.80697  1.0000
  Ge          0.61869      0.72130      0.97279  1.0000
  Si          0.09461      0.41215      0.63919  1.0000
  Si          0.31145      0.91846      0.31939  1.0000
  Ge          0.26818      0.35966      0.93826  1.0000
  Si          0.67141      0.93268      0.29011  1.0000
  Si          0.08891      0.76378      0.61103  1.0000
  Si          0.75506      0.67617      0.45194  1.0000
  Ge          0.33750      0.10270      0.77847  1.0000
  Ge          0.92815      0.27414      0.11830  1.0000
  Si          0.34681      0.26961      0.38060  1.0000
  Ge          0.91350      0.67047      0.04743  1.0000
  Si          0.74525      0.09926      0.70483  1.0000
  Ge          0.68113      0.75657      0.87085  1.0000
  Si          0.09298      0.35572      0.54002  1.0000
  Si          0.25483      0.91335      0.22084  1.0000
  Ge          0.98247      0.13259      0.96202  1.0000
  Si          0.88552      0.86846      0.30466  1.0000
  Si          0.15032      0.04343      0.62576  1.0000
  Si          0.03489      0.89315      0.46511  1.0000
  Ge          0.12436      0.17334      0.78756  1.0000
  Ge          0.86603      0.98907      0.13996  1.0000
  Si          0.13070      0.98914      0.36695  1.0000
  Ge          0.85851      0.89827      0.03346  1.0000
  Si          0.02087      0.16229      0.68762  1.0000
  Ge          0.88572      0.03775      0.85842  1.0000
  Si          0.15695      0.14002      0.52734  1.0000
  Si          0.97776      0.86132      0.20590  1.0000
  O1          0.95801      0.03499      0.00618  1.0000
  O2          0.00854      0.94641      0.33588  1.0000
  O2          0.06846      0.08353      0.65744  1.0000
  O2          0.07844      0.01533      0.49687  1.0000
  O1          0.01844      0.14191      0.82966  1.0000
  O3          0.95583      0.95189      0.17458  1.0000
  O2          0.35486      0.60129      0.33691  1.0000
  O2          0.41349      0.77717      0.65719  1.0000
  O1          0.25184      0.68692      0.99478  1.0000
  O1          0.68382      0.42182      0.82129  1.0000
  O3          0.57119      0.23769      0.17288  1.0000
  O2          0.76915      0.35942      0.49312  1.0000
  O1          0.57872      0.34245      0.99763  1.0000
  O2          0.76289      0.42912      0.65251  1.0000
  O2          0.66236      0.25643      0.33413  1.0000
  O2          0.42619      0.67285      0.49794  1.0000
  O3          0.26217      0.60056      0.17370  1.0000
  O3          0.34371      0.77113      0.81941  1.0000
  O1          0.14358      0.22157      0.95876  1.0000
  O2          0.79679      0.93295      0.30963  1.0000
  O2          0.08815      0.89008      0.62959  1.0000
  O2          0.88222      0.80170      0.47091  1.0000
  O1          0.19100      0.07999      0.79453  1.0000
  O1          0.93907      0.14750      0.14137  1.0000
  O2          0.22119      0.14222      0.36200  1.0000
  O1          0.91428      0.79526      0.02201  1.0000
  O2          0.86764      0.10168      0.68163  1.0000
  O1          0.81618      0.88166      0.84513  1.0000
  O2          0.09524      0.23056      0.52131  1.0000
  O2          0.12832      0.90708      0.20159  1.0000
  O2          0.93824      0.87881      0.25547  1.0000
  O2          0.14131      0.08844      0.57699  1.0000
  O1          0.92143      0.05003      0.91358  1.0000
  O3          0.04441      0.14320      0.73772  1.0000
  O1          0.86587      0.92305      0.08954  1.0000
  O2          0.07524      0.94818      0.41613  1.0000
  O1          0.91538      0.22447      0.97171  1.0000
  O2          0.80194      0.71856      0.31639  1.0000
  O2          0.29947      0.11124      0.63830  1.0000
  O2          0.10352      0.81147      0.47581  1.0000
  O1          0.24238      0.32832      0.79103  1.0000
  O3          0.70500      0.91909      0.15358  1.0000
  O2          0.21297      0.92106      0.35600  1.0000
  O1          0.70672      0.82992      0.01486  1.0000
  O2          0.09197      0.31278      0.67584  1.0000
  O3          0.77449      0.08364      0.84693  1.0000
  O2          0.30734      0.22182      0.51613  1.0000
  O3          0.89725      0.71541      0.19174  1.0000
  O2          0.33868      0.66334      0.25657  1.0000
  O2          0.35210      0.68966      0.57740  1.0000
  O1          0.35999      0.72719      0.90881  1.0000
  O3          0.68600      0.37816      0.73495  1.0000
  O1          0.64304      0.34298      0.08778  1.0000
  O2          0.68058      0.34220      0.41447  1.0000
  O1          0.39099      0.37382      0.96967  1.0000
  O2          0.67680      0.06253      0.30784  1.0000
  O2          0.95852      0.64029      0.62870  1.0000
  O2          0.63345      0.68501      0.47063  1.0000
  O3          0.32592      0.96025      0.79391  1.0000
  O1          0.05216      0.39712      0.14624  1.0000
  O2          0.33818      0.39182      0.36351  1.0000
  O1          0.06726      0.70074      0.04263  1.0000
  O2          0.61943      0.97345      0.68611  1.0000
  O1          0.71232      0.63581      0.86556  1.0000
  O2          0.96312      0.34681      0.52154  1.0000
  O2          0.37395      0.04414      0.20209  1.0000
  O1          0.76157      0.28192      0.01814  1.0000
  O2          0.70163      0.48561      0.34430  1.0000
  O2          0.53507      0.24333      0.66797  1.0000
  O2          0.23504      0.71181      0.50581  1.0000
  O1          0.30001      0.54276      0.84048  1.0000
  O2          0.48144      0.78891      0.18520  1.0000
  O2          0.31731      0.78950      0.32785  1.0000
  O1          0.47088      0.69404      0.98732  1.0000
  O2          0.22473      0.54745      0.64845  1.0000
  O3          0.71061      0.23260      0.81316  1.0000
  O2          0.53982      0.32240      0.48681  1.0000
  O1          0.78874      0.46609      0.16530  1.0000
  O1          0.80790      0.53198      0.02111  1.0000
  O2          0.47118      0.27127      0.36050  1.0000
  O2          0.74194      0.22412      0.68988  1.0000
  O2          0.21715      0.48137      0.52162  1.0000
  O1          0.55551      0.75468      0.84369  1.0000
  O2          0.25741      0.78943      0.20228  1.0000
  O2          0.54834      0.80712      0.30962  1.0000
  O1          0.23786      0.48119      0.94968  1.0000
  O2          0.21303      0.76525      0.63107  1.0000
  O1          0.45741      0.23552      0.80302  1.0000
  O2          0.75546      0.55200      0.47054  1.0000
  O1          0.77579      0.23509      0.13389  1.0000
  O1          0.27367      0.32624      0.88269  1.0000
  O2          0.68978      0.93247      0.23686  1.0000
  O2          0.09320      0.77952      0.55781  1.0000
  O2          0.77249      0.69173      0.39876  1.0000
  O3          0.32805      0.12090      0.72081  1.0000
  O1          0.94859      0.25055      0.06268  1.0000
  O2          0.33246      0.25232      0.43387  1.0000
  O1          0.86977      0.66383      0.10239  1.0000
  O2          0.75714      0.09002      0.75809  1.0000
  O1          0.68871      0.80703      0.92534  1.0000
  O2          0.09343      0.34086      0.59334  1.0000
  O2          0.23912      0.91577      0.27418  1.0000
  O1          0.63817      0.59072      0.97818  1.0000
  O2          0.44862      0.04434      0.32785  1.0000
  O2          0.97020      0.42564      0.64736  1.0000
  O2          0.42115      0.45854      0.48959  1.0000
  O2          0.55189      0.98229      0.81198  1.0000
  O1          0.05532      0.63640      0.15165  1.0000
  O2          0.56573      0.60276      0.34451  1.0000
  O1          0.03252      0.46676      0.00564  1.0000
  O2          0.41357      0.99336      0.67151  1.0000
  O1          0.48672      0.47234      0.82666  1.0000
  O2          0.98206      0.57333      0.50204  1.0000
  O2          0.59423      0.04309      0.18283  1.0000
  O2          0.58302      0.17531      0.25452  1.0000
  O2          0.84359      0.43572      0.57347  1.0000
  O1          0.57828      0.40206      0.90726  1.0000
  O2          0.41875      0.85697      0.73870  1.0000
  O1          0.19217      0.58893      0.08305  1.0000
  O2          0.42687      0.59766      0.41742  1.0000
  F           0.45998      0.91782      0.25605  1.0000
  F           0.10024      0.56478      0.57767  1.0000
  F           0.47601      0.57882      0.91029  1.0000
  F           0.54494      0.14024      0.74999  1.0000
  F           0.91495      0.44433      0.08784  1.0000
  F           0.55520      0.46952      0.41718  1.0000
