data_cif

_audit_creation_method             'generated by GULP'

_symmetry_space_group_name_H-M     'P 1'
_symmetry_Int_Tables_number        1
_symmetry_cell_setting             triclinic

_cell_length_a                       12.1785
_cell_length_b                       12.1301
_cell_length_c                       30.1678
_cell_angle_alpha                   90.4868
_cell_angle_beta                    90.4561
_cell_angle_gamma                  120.4541

loop_
_atom_site_label
_atom_site_fract_x
_atom_site_fract_y
_atom_site_fract_z
_atom_site_occupancy
  Si          0.69960      0.37570      0.03389  1.0000
  Si          0.61727      0.33100      0.35540  1.0000
  Ge          0.66066      0.29251      0.70413  1.0000
  Ge          0.27924      0.60034      0.52579  1.0000
  Si          0.35172      0.65663      0.87674  1.0000
  Si          0.31963      0.70788      0.19602  1.0000
  Si          0.38027      0.71617      0.29426  1.0000
  Si          0.31152      0.60921      0.97550  1.0000
  Ge          0.28865      0.66722      0.62756  1.0000
  Ge          0.60000      0.29728      0.80495  1.0000
  Si          0.66797      0.36952      0.45683  1.0000
  Si          0.70000      0.32340      0.13221  1.0000
  Si          0.52197      0.41322      0.97311  1.0000
  Si          0.57793      0.11586      0.29307  1.0000
  Ge          0.85821      0.44245      0.62849  1.0000
  Si          0.46476      0.59387      0.45840  1.0000
  Ge          0.40154      0.86175      0.80891  1.0000
  Si          0.10265      0.52850      0.13529  1.0000
  Si          0.41965      0.54320      0.35607  1.0000
  Si          0.10155      0.57738      0.03594  1.0000
  Ge          0.45347      0.86405      0.70502  1.0000
  Si          0.56199      0.46408      0.87365  1.0000
  Ge          0.85543      0.38131      0.52502  1.0000
  Si          0.52496      0.11262      0.19359  1.0000
  Si          0.28047      0.38113      0.86227  1.0000
  Si          0.59574      0.90547      0.18112  1.0000
  Ge          0.06795      0.66689      0.50293  1.0000
  Si          0.70127      0.61243      0.34038  1.0000
  Ge          0.37365      0.07538      0.69060  1.0000
  Si          0.89646      0.29709      0.02060  1.0000
  Si          0.39089      0.30945      0.47064  1.0000
  Si          0.89833      0.60048      0.14762  1.0000
  Ge          0.68102      0.09588      0.82343  1.0000
  Si          0.58859      0.69064      0.98732  1.0000
  Ge          0.07757      0.37917      0.64177  1.0000
  Si          0.30059      0.91230      0.30752  1.0000
  Si          0.24352      0.33158      0.96130  1.0000
  Si          0.65865      0.91983      0.27987  1.0000
  Ge          0.06698      0.72789      0.60572  1.0000
  Ge          0.72100      0.63498      0.43896  1.0000
  Ge          0.31557      0.06508      0.79248  1.0000
  Si          0.90394      0.25025      0.11950  1.0000
  Si          0.33497      0.26168      0.37017  1.0000
  Si          0.90500      0.65666      0.04909  1.0000
  Ge          0.73663      0.08111      0.72347  1.0000
  Si          0.63302      0.74014      0.88863  1.0000
  Ge          0.06394      0.31012      0.54068  1.0000
  Si          0.24756      0.91453      0.20866  1.0000
  Si          0.96849      0.11705      0.97380  1.0000
  Si          0.87509      0.85772      0.29193  1.0000
  Ge          0.13462      0.01925      0.62807  1.0000
  Ge          0.01233      0.85623      0.45195  1.0000
  Ge          0.10084      0.13265      0.80686  1.0000
  Si          0.84262      0.97157      0.13318  1.0000
  Si          0.12045      0.98057      0.35569  1.0000
  Si          0.84066      0.87174      0.03533  1.0000
  Ge          0.02161      0.14003      0.70080  1.0000
  Ge          0.85776      0.02360      0.87462  1.0000
  Ge          0.14627      0.10766      0.52161  1.0000
  Si          0.96888      0.85288      0.19464  1.0000
  O2          0.91810      0.99171      0.00369  1.0000
  O2          0.99636      0.93399      0.32448  1.0000
  O1          0.04004      0.04869      0.66112  1.0000
  O1          0.08882      0.96752      0.49430  1.0000
  O1          0.95749      0.04713      0.83117  1.0000
  O2          0.92451      0.93027      0.16350  1.0000
  O2          0.34481      0.59389      0.32551  1.0000
  O1          0.41110      0.74584      0.66548  1.0000
  O2          0.22891      0.65000      0.00641  1.0000
  O3          0.63866      0.42693      0.84039  1.0000
  O2          0.57597      0.23721      0.16258  1.0000
  O3          0.72559      0.30509      0.48783  1.0000
  O2          0.57617      0.33904      0.00264  1.0000
  O1          0.73611      0.40764      0.66458  1.0000
  O2          0.65122      0.24436      0.32392  1.0000
  O3          0.40462      0.65647      0.48813  1.0000
  O2          0.23002      0.58099      0.16614  1.0000
  O3          0.31147      0.73238      0.84375  1.0000
  O2          0.12054      0.20835      0.98277  1.0000
  O2          0.78591      0.92108      0.29792  1.0000
  O1          0.06123      0.85677      0.62655  1.0000
  O1          0.85583      0.77703      0.45996  1.0000
  O1          0.18724      0.06080      0.81774  1.0000
  O2          0.90358      0.12474      0.13857  1.0000
  O2          0.21256      0.13489      0.34944  1.0000
  O2          0.90306      0.78152      0.03067  1.0000
  O1          0.86027      0.06964      0.70207  1.0000
  O3          0.75482      0.86007      0.86884  1.0000
  O1          0.05943      0.18002      0.51408  1.0000
  O2          0.12142      0.91325      0.18951  1.0000
  O2          0.93182      0.87346      0.24343  1.0000
  O1          0.15303      0.08295      0.57672  1.0000
  O3          0.94319      0.06759      0.92384  1.0000
  O1          0.08840      0.13392      0.75029  1.0000
  O2          0.85441      0.92929      0.08416  1.0000
  O3          0.07271      0.94903      0.40486  1.0000
  O2          0.89792      0.19794      0.98405  1.0000
  O2          0.78929      0.70596      0.30083  1.0000
  O1          0.28688      0.08787      0.64824  1.0000
  O1          0.06826      0.75189      0.45788  1.0000
  O3          0.18125      0.29087      0.82495  1.0000
  O2          0.69289      0.90263      0.14505  1.0000
  O2          0.20309      0.91334      0.34397  1.0000
  O2          0.69032      0.78912      0.02406  1.0000
  O1          0.09120      0.29510      0.68597  1.0000
  O1          0.78017      0.10356      0.86749  1.0000
  O3          0.30451      0.21661      0.50800  1.0000
  O2          0.89915      0.70116      0.18403  1.0000
  O2          0.32115      0.65563      0.24553  1.0000
  O1          0.34451      0.63957      0.57854  1.0000
  O2          0.30343      0.66096      0.92663  1.0000
  O1          0.68755      0.35734      0.75733  1.0000
  O2          0.64348      0.32084      0.08283  1.0000
  O2          0.67101      0.33075      0.40468  1.0000
  O2          0.36762      0.32534      0.97775  1.0000
  O2          0.66650      0.05082      0.29791  1.0000
  O1          0.95373      0.60453      0.63603  1.0000
  O3          0.61544      0.67761      0.46400  1.0000
  O1          0.33225      0.95237      0.81992  1.0000
  O2          0.03447      0.37332      0.13832  1.0000
  O2          0.33431      0.38739      0.35280  1.0000
  O2          0.03544      0.66523      0.03184  1.0000
  O1          0.61273      0.92720      0.71406  1.0000
  O2          0.64064      0.61842      0.87059  1.0000
  O1          0.91039      0.27751      0.53204  1.0000
  O2          0.37011      0.04465      0.19097  1.0000
  O2          0.76506      0.29894      0.01241  1.0000
  O2          0.68982      0.47284      0.33407  1.0000
  O1          0.50175      0.22820      0.69284  1.0000
  O1          0.22014      0.69602      0.51063  1.0000
  O2          0.28017      0.51316      0.85575  1.0000
  O2          0.46090      0.77277      0.17438  1.0000
  O2          0.30536      0.78254      0.31639  1.0000
  O2          0.45511      0.68595      0.99687  1.0000
  O1          0.19822      0.52843      0.65605  1.0000
  O1          0.65356      0.21607      0.83675  1.0000
  O2          0.52232      0.30820      0.47359  1.0000
  O2          0.76635      0.46619      0.15472  1.0000
  O2          0.78157      0.53041      0.02918  1.0000
  O2          0.46423      0.26885      0.35445  1.0000
  O1          0.72082      0.19329      0.69439  1.0000
  O1          0.18463      0.44019      0.51456  1.0000
  O2          0.50611      0.73769      0.87087  1.0000
  O2          0.24838      0.78987      0.19012  1.0000
  O2          0.53502      0.79618      0.29969  1.0000
  O2          0.24143      0.45508      0.98065  1.0000
  O1          0.21810      0.75741      0.61810  1.0000
  O1          0.43846      0.22050      0.79779  1.0000
  O3          0.75273      0.52190      0.46592  1.0000
  O2          0.77963      0.24959      0.13813  1.0000
  O2          0.21666      0.30809      0.90833  1.0000
  O2          0.67063      0.91487      0.22682  1.0000
  O1          0.02768      0.71862      0.55042  1.0000
  O3          0.77985      0.68620      0.38362  1.0000
  O1          0.28005      0.02767      0.73692  1.0000
  O2          0.90104      0.23081      0.06640  1.0000
  O2          0.31932      0.25032      0.42314  1.0000
  O2          0.90377      0.67303      0.10221  1.0000
  O1          0.77799      0.12307      0.77827  1.0000
  O2          0.65490      0.76281      0.94196  1.0000
  O1          0.09643      0.30350      0.59595  1.0000
  O2          0.23095      0.91334      0.26178  1.0000
  O2          0.57965      0.55467      0.99524  1.0000
  O2          0.43907      0.03792      0.31621  1.0000
  O1          0.92686      0.35684      0.64628  1.0000
  O2          0.41109      0.45015      0.47861  1.0000
  O1          0.55744      0.94062      0.82565  1.0000
  O2          0.02086      0.58595      0.15780  1.0000
  O2          0.55997      0.59519      0.33592  1.0000
  O2          0.01835      0.43702      0.01258  1.0000
  O1          0.41609      0.96502      0.67740  1.0000
  O2          0.41734      0.39431      0.85308  1.0000
  O1          0.96654      0.50689      0.49454  1.0000
  O2          0.57871      0.02673      0.17167  1.0000
  O2          0.57887      0.16630      0.24339  1.0000
  O1          0.80056      0.40634      0.57419  1.0000
  O2          0.56823      0.41242      0.92288  1.0000
  O1          0.37471      0.80635      0.75458  1.0000
  O2          0.15300      0.57932      0.08587  1.0000
  O2          0.42089      0.59021      0.40639  1.0000
  F           0.44952      0.90956      0.24613  1.0000
  F           0.07180      0.50948      0.57903  1.0000
  F           0.43444      0.53739      0.92513  1.0000
  F           0.54101      0.08481      0.76036  1.0000
  F           0.89659      0.44916      0.08491  1.0000
  F           0.58050      0.49459      0.41218  1.0000
