data_cif

_audit_creation_method             'generated by GULP'

_symmetry_space_group_name_H-M     'P 1'
_symmetry_Int_Tables_number        1
_symmetry_cell_setting             triclinic

_cell_length_a                       12.1404
_cell_length_b                       12.1123
_cell_length_c                       30.0545
_cell_angle_alpha                   89.3864
_cell_angle_beta                    89.5763
_cell_angle_gamma                  119.9811

loop_
_atom_site_label
_atom_site_fract_x
_atom_site_fract_y
_atom_site_fract_z
_atom_site_occupancy
  Si          0.69960      0.37570      0.03389  1.0000
  Ge          0.61245      0.29454      0.35943  1.0000
  Ge          0.65929      0.27450      0.71006  1.0000
  Ge          0.29952      0.61095      0.53424  1.0000
  Si          0.38619      0.66820      0.86943  1.0000
  Si          0.31449      0.69813      0.19003  1.0000
  Si          0.35828      0.68385      0.28833  1.0000
  Si          0.32043      0.61462      0.96795  1.0000
  Ge          0.30358      0.67414      0.63434  1.0000
  Si          0.62300      0.29623      0.80808  1.0000
  Ge          0.66996      0.34817      0.46050  1.0000
  Si          0.70334      0.32060      0.13258  1.0000
  Si          0.52194      0.41156      0.97353  1.0000
  Si          0.57170      0.08560      0.29337  1.0000
  Ge          0.86705      0.43487      0.64006  1.0000
  Ge          0.45811      0.56883      0.46014  1.0000
  Si          0.42582      0.88085      0.80461  1.0000
  Si          0.10513      0.52414      0.12846  1.0000
  Ge          0.41114      0.52544      0.35535  1.0000
  Si          0.10379      0.57690      0.02858  1.0000
  Si          0.47526      0.87554      0.70309  1.0000
  Si          0.58141      0.46304      0.87368  1.0000
  Ge          0.87022      0.39106      0.53479  1.0000
  Si          0.52594      0.10206      0.19371  1.0000
  Si          0.30669      0.39178      0.85749  1.0000
  Si          0.59183      0.89294      0.17748  1.0000
  Ge          0.08980      0.68005      0.51388  1.0000
  Ge          0.69444      0.57791      0.34128  1.0000
  Si          0.39341      0.08082      0.68687  1.0000
  Si          0.89729      0.29958      0.01761  1.0000
  Ge          0.38497      0.27571      0.47411  1.0000
  Si          0.90106      0.59762      0.14437  1.0000
  Si          0.70979      0.09693      0.81689  1.0000
  Si          0.59468      0.69083      0.98457  1.0000
  Ge          0.10368      0.38757      0.65115  1.0000
  Si          0.28870      0.88664      0.30549  1.0000
  Si          0.24667      0.33445      0.95652  1.0000
  Si          0.64040      0.88050      0.27606  1.0000
  Ge          0.07490      0.72255      0.61560  1.0000
  Ge          0.74095      0.63530      0.44196  1.0000
  Si          0.34238      0.07908      0.78911  1.0000
  Si          0.90758      0.24678      0.11633  1.0000
  Ge          0.32866      0.23495      0.37110  1.0000
  Si          0.90530      0.65419      0.04502  1.0000
  Ge          0.75744      0.08761      0.71442  1.0000
  Si          0.66216      0.74114      0.88560  1.0000
  Ge          0.08956      0.32428      0.54841  1.0000
  Si          0.24656      0.90632      0.20645  1.0000
  Si          0.96490      0.11906      0.96977  1.0000
  Si          0.86396      0.82658      0.28999  1.0000
  Ge          0.14078      0.00466      0.63777  1.0000
  Ge          0.02153      0.86147      0.46066  1.0000
  Si          0.12675      0.14168      0.81001  1.0000
  Si          0.84432      0.96628      0.13004  1.0000
  Ge          0.10577      0.95614      0.35512  1.0000
  Si          0.84201      0.87072      0.03187  1.0000
  Ge          0.04071      0.14097      0.70831  1.0000
  Si          0.87980      0.02135      0.87120  1.0000
  Ge          0.14088      0.09567      0.53320  1.0000
  Si          0.97100      0.84694      0.19237  1.0000
  O2          0.92114      0.99473      0.00062  1.0000
  O3          0.96468      0.90090      0.32816  1.0000
  O1          0.09256      0.05055      0.68394  1.0000
  O1          0.05462      0.95665      0.50672  1.0000
  O2          0.01067      0.06137      0.84491  1.0000
  O2          0.92362      0.92399      0.16156  1.0000
  O3          0.32011      0.56513      0.32093  1.0000
  O3          0.42553      0.75476      0.67274  1.0000
  O2          0.23046      0.65168      0.99697  1.0000
  O2          0.65301      0.40486      0.84460  1.0000
  O2          0.58099      0.23341      0.16453  1.0000
  O1          0.74487      0.30599      0.50003  1.0000
  O2          0.57265      0.33739      0.00503  1.0000
  O1          0.74759      0.40836      0.67543  1.0000
  O3          0.65058      0.20101      0.32518  1.0000
  O1          0.42589      0.65393      0.49699  1.0000
  O2          0.23200      0.57775      0.15804  1.0000
  O2          0.35369      0.75682      0.83692  1.0000
  O2          0.11767      0.20936      0.97482  1.0000
  O2          0.76290      0.87674      0.29447  1.0000
  O1          0.05577      0.84491      0.63711  1.0000
  O1          0.86126      0.77249      0.46449  1.0000
  O2          0.21841      0.07890      0.80975  1.0000
  O2          0.90680      0.11935      0.13469  1.0000
  O1          0.19822      0.11407      0.34476  1.0000
  O2          0.90312      0.77946      0.02578  1.0000
  O1          0.88344      0.07497      0.69506  1.0000
  O2          0.78941      0.86792      0.86701  1.0000
  O1          0.08110      0.19392      0.52259  1.0000
  O2          0.12379      0.91003      0.18630  1.0000
  O2          0.93704      0.86333      0.24247  1.0000
  O1          0.13020      0.07608      0.59055  1.0000
  O2          0.92172      0.06606      0.92091  1.0000
  O3          0.05849      0.12905      0.76481  1.0000
  O2          0.85776      0.92397      0.08108  1.0000
  O1          0.07739      0.94419      0.41185  1.0000
  O2          0.89691      0.20095      0.98113  1.0000
  O3          0.79520      0.67794      0.29785  1.0000
  O3          0.30139      0.05924      0.64677  1.0000
  O1          0.08791      0.76744      0.46848  1.0000
  O2          0.21271      0.29191      0.82097  1.0000
  O2          0.69389      0.89803      0.14087  1.0000
  O3          0.18959      0.87847      0.34287  1.0000
  O2          0.69161      0.78928      0.02100  1.0000
  O1          0.11807      0.29713      0.69344  1.0000
  O2          0.80137      0.08913      0.85468  1.0000
  O1          0.29639      0.17058      0.51662  1.0000
  O2          0.90318      0.69668      0.18100  1.0000
  O2          0.30680      0.63272      0.23853  1.0000
  O1          0.36900      0.69957      0.58137  1.0000
  O2          0.32456      0.66927      0.91764  1.0000
  O3          0.67720      0.36071      0.76073  1.0000
  O2          0.64578      0.31989      0.08369  1.0000
  O1          0.69791      0.31344      0.40733  1.0000
  O2          0.36695      0.32488      0.97555  1.0000
  O2          0.64999      0.00890      0.29541  1.0000
  O1          0.92955      0.59412      0.62374  1.0000
  O1          0.61722      0.66289      0.44835  1.0000
  O2          0.34230      0.95198      0.80706  1.0000
  O2          0.03879      0.36927      0.13272  1.0000
  O1          0.34497      0.36603      0.34389  1.0000
  O2          0.03535      0.66350      0.02554  1.0000
  O3          0.62694      0.94239      0.70106  1.0000
  O2          0.67005      0.61793      0.86840  1.0000
  O1          0.97091      0.33404      0.52225  1.0000
  O2          0.37187      0.03711      0.18965  1.0000
  O2          0.76513      0.30080      0.01073  1.0000
  O1          0.67076      0.43199      0.32706  1.0000
  O3          0.51479      0.21813      0.68034  1.0000
  O1          0.21410      0.65817      0.50121  1.0000
  O2          0.31203      0.52699      0.84729  1.0000
  O2          0.45716      0.76518      0.16789  1.0000
  O2          0.28634      0.75244      0.31090  1.0000
  O2          0.46119      0.69062      0.99001  1.0000
  O1          0.25263      0.51900      0.64993  1.0000
  O2          0.69668      0.22187      0.82608  1.0000
  O1          0.51167      0.25051      0.47265  1.0000
  O2          0.77009      0.46333      0.15335  1.0000
  O2          0.77983      0.53008      0.02708  1.0000
  O1          0.44996      0.20345      0.36316  1.0000
  O1          0.76651      0.21927      0.69060  1.0000
  O1          0.23981      0.44766      0.53612  1.0000
  O2          0.54075      0.74379      0.86489  1.0000
  O2          0.24339      0.78160      0.18625  1.0000
  O2          0.51306      0.75517      0.29413  1.0000
  O2          0.24828      0.46043      0.97433  1.0000
  O1          0.19983      0.72803      0.64455  1.0000
  O2          0.46860      0.20231      0.80629  1.0000
  O1          0.72915      0.50748      0.47122  1.0000
  O2          0.78547      0.24842      0.13708  1.0000
  O2          0.23387      0.32022      0.90321  1.0000
  O2          0.65904      0.88541      0.22263  1.0000
  O1          0.11783      0.77116      0.56093  1.0000
  O1          0.78862      0.64048      0.38743  1.0000
  O2          0.32750      0.07505      0.73565  1.0000
  O2          0.90340      0.23018      0.06305  1.0000
  O1          0.29274      0.22777      0.42723  1.0000
  O2          0.90469      0.66988      0.09827  1.0000
  O3          0.78366      0.10483      0.77214  1.0000
  O2          0.67235      0.75689      0.93883  1.0000
  O1          0.06528      0.29293      0.60499  1.0000
  O2          0.22442      0.90100      0.25983  1.0000
  O2          0.57444      0.55098      0.99513  1.0000
  O2          0.42799      0.00666      0.31470  1.0000
  O1          0.99130      0.42677      0.66493  1.0000
  O1          0.42894      0.42882      0.48673  1.0000
  O2          0.56931      0.97225      0.82089  1.0000
  O2          0.02305      0.58059      0.15190  1.0000
  O1          0.56843      0.60443      0.34026  1.0000
  O2          0.02025      0.43739      0.00662  1.0000
  O2          0.42595      0.96651      0.68223  1.0000
  O2          0.44435      0.40443      0.84975  1.0000
  O1          0.94040      0.54830      0.51832  1.0000
  O2          0.58194      0.02000      0.17006  1.0000
  O2          0.57426      0.14426      0.24394  1.0000
  O1          0.82173      0.35603      0.58965  1.0000
  O2          0.57804      0.41329      0.92412  1.0000
  O2          0.42527      0.83440      0.75446  1.0000
  O2          0.15530      0.57590      0.07811  1.0000
  O1          0.37965      0.54362      0.41000  1.0000
  F           0.43806      0.88418      0.24102  1.0000
  F           0.11790      0.54438      0.58013  1.0000
  F           0.45061      0.54292      0.91900  1.0000
  F           0.58477      0.12495      0.74460  1.0000
  F           0.89862      0.44697      0.07989  1.0000
  F           0.55429      0.43011      0.40338  1.0000
