data_cif

_audit_creation_method             'generated by GULP'

_symmetry_space_group_name_H-M     'P 1'
_symmetry_Int_Tables_number        1
_symmetry_cell_setting             triclinic

_cell_length_a                       12.1155
_cell_length_b                       12.1723
_cell_length_c                       30.1354
_cell_angle_alpha                   90.5273
_cell_angle_beta                    89.7491
_cell_angle_gamma                  120.0199

loop_
_atom_site_label
_atom_site_fract_x
_atom_site_fract_y
_atom_site_fract_z
_atom_site_occupancy
  Si          0.69960      0.37570      0.03389  1.0000
  Si          0.61543      0.33801      0.35176  1.0000
  Ge          0.69440      0.33136      0.68469  1.0000
  Si          0.28769      0.62987      0.51311  1.0000
  Ge          0.37685      0.69308      0.86023  1.0000
  Si          0.32922      0.72275      0.19031  1.0000
  Si          0.38084      0.71909      0.28882  1.0000
  Ge          0.30883      0.63127      0.96109  1.0000
  Si          0.30737      0.68721      0.61442  1.0000
  Ge          0.62735      0.32226      0.78847  1.0000
  Si          0.66876      0.39770      0.45032  1.0000
  Si          0.70877      0.33502      0.13241  1.0000
  Ge          0.54795      0.43393      0.96795  1.0000
  Si          0.58112      0.12193      0.29220  1.0000
  Ge          0.90762      0.49604      0.61348  1.0000
  Si          0.46312      0.59412      0.44919  1.0000
  Ge          0.40674      0.88601      0.78468  1.0000
  Si          0.11359      0.54669      0.12907  1.0000
  Si          0.41327      0.54066      0.34963  1.0000
  Si          0.10100      0.58756      0.02958  1.0000
  Ge          0.46106      0.89505      0.68114  1.0000
  Ge          0.60099      0.48836      0.86369  1.0000
  Si          0.87343      0.42987      0.51535  1.0000
  Si          0.53143      0.12331      0.19277  1.0000
  Ge          0.30828      0.40719      0.84646  1.0000
  Si          0.60635      0.92050      0.17736  1.0000
  Si          0.08779      0.71336      0.50192  1.0000
  Si          0.69233      0.61266      0.33721  1.0000
  Ge          0.40580      0.12444      0.66930  1.0000
  Si          0.90318      0.30576      0.01861  1.0000
  Si          0.39228      0.31974      0.46316  1.0000
  Si          0.90260      0.61253      0.14363  1.0000
  Ge          0.69253      0.10460      0.80586  1.0000
  Ge          0.58985      0.70937      0.98024  1.0000
  Si          0.09792      0.41039      0.63249  1.0000
  Si          0.30364      0.91640      0.30419  1.0000
  Ge          0.25789      0.34828      0.94881  1.0000
  Si          0.65968      0.92467      0.27646  1.0000
  Ge          0.10062      0.77099      0.60401  1.0000
  Si          0.74097      0.67426      0.43602  1.0000
  Ge          0.34737      0.10340      0.77005  1.0000
  Si          0.91802      0.26759      0.11777  1.0000
  Si          0.33529      0.26474      0.36457  1.0000
  Si          0.89581      0.65783      0.04462  1.0000
  Ge          0.74677      0.10193      0.70274  1.0000
  Ge          0.66441      0.76769      0.88177  1.0000
  Si          0.07504      0.34963      0.53108  1.0000
  Si          0.25402      0.92590      0.20572  1.0000
  Ge          0.97575      0.12988      0.96465  1.0000
  Si          0.87513      0.86066      0.29004  1.0000
  Ge          0.16724      0.06238      0.61271  1.0000
  Si          0.02080      0.89085      0.45018  1.0000
  Ge          0.12608      0.16463      0.78817  1.0000
  Si          0.85948      0.99390      0.13052  1.0000
  Si          0.12098      0.98340      0.35200  1.0000
  Ge          0.84000      0.88375      0.03148  1.0000
  Ge          0.03665      0.16689      0.68309  1.0000
  Ge          0.88485      0.05106      0.85970  1.0000
  Si          0.14294      0.13751      0.51162  1.0000
  Si          0.97420      0.86305      0.19199  1.0000
  O1          0.92092      0.98774      0.98901  1.0000
  O2          0.99710      0.93873      0.32158  1.0000
  O1          0.06200      0.08829      0.64103  1.0000
  O2          0.06167      0.01725      0.47903  1.0000
  O1          0.98280      0.08716      0.81429  1.0000
  O2          0.93315      0.94333      0.16123  1.0000
  O2          0.34122      0.59358      0.31862  1.0000
  O3          0.43105      0.76932      0.64398  1.0000
  O3          0.21445      0.66539      0.99601  1.0000
  O1          0.67959      0.44690      0.82569  1.0000
  O2          0.58559      0.25111      0.16364  1.0000
  O2          0.75558      0.36018      0.48055  1.0000
  O3          0.58201      0.33779      0.00147  1.0000
  O1          0.77886      0.45137      0.65001  1.0000
  O2          0.65433      0.24956      0.32276  1.0000
  O2          0.40631      0.66511      0.48025  1.0000
  O2          0.24262      0.60096      0.15866  1.0000
  O1          0.32879      0.75912      0.82009  1.0000
  O1          0.13445      0.22062      0.97504  1.0000
  O2          0.78463      0.92284      0.29542  1.0000
  O1          0.12659      0.91025      0.62603  1.0000
  O2          0.86712      0.80090      0.45458  1.0000
  O1          0.21635      0.09836      0.79756  1.0000
  O2          0.91995      0.14560      0.13895  1.0000
  O2          0.21035      0.13611      0.34659  1.0000
  O3          0.89840      0.77976      0.02529  1.0000
  O1          0.87568      0.09637      0.68195  1.0000
  O1          0.80286      0.89086      0.85991  1.0000
  O2          0.07837      0.22738      0.51056  1.0000
  O2          0.12737      0.92470      0.18722  1.0000
  O2          0.93122      0.87445      0.24119  1.0000
  O3          0.13606      0.07647      0.55785  1.0000
  O1          0.96670      0.11896      0.90743  1.0000
  O1          0.09908      0.15823      0.73163  1.0000
  O3          0.88482      0.96807      0.08098  1.0000
  O2          0.06732      0.94051      0.40108  1.0000
  O3          0.89498      0.20733      0.98149  1.0000
  O2          0.79190      0.71079      0.30100  1.0000
  O1          0.32241      0.14942      0.62672  1.0000
  O2          0.08535      0.80774      0.46432  1.0000
  O1          0.20644      0.32117      0.80425  1.0000
  O2          0.70724      0.92333      0.14077  1.0000
  O2          0.20397      0.91647      0.34064  1.0000
  O1          0.68252      0.80910      0.02468  1.0000
  O3          0.11486      0.32737      0.66930  1.0000
  O1          0.78239      0.10696      0.85020  1.0000
  O2          0.29257      0.22317      0.49948  1.0000
  O2          0.90558      0.71378      0.17999  1.0000
  O2          0.32703      0.66522      0.23921  1.0000
  O2          0.34285      0.68402      0.56226  1.0000
  O1          0.33814      0.71919      0.91343  1.0000
  O1          0.71400      0.37757      0.74043  1.0000
  O2          0.64668      0.32639      0.08376  1.0000
  O2          0.66888      0.34042      0.40143  1.0000
  O1          0.38675      0.36734      0.97752  1.0000
  O2          0.66804      0.05424      0.29566  1.0000
  O1          0.95978      0.65712      0.62456  1.0000
  O2          0.61770      0.68233      0.45394  1.0000
  O1          0.33479      0.97333      0.79656  1.0000
  O2          0.04818      0.39312      0.13391  1.0000
  O2          0.32617      0.38600      0.34671  1.0000
  O2          0.02546      0.66549      0.02678  1.0000
  O1          0.61954      0.95336      0.69278  1.0000
  O1          0.69716      0.64738      0.87231  1.0000
  O2          0.94661      0.34640      0.51416  1.0000
  O2          0.37670      0.05671      0.18875  1.0000
  O2          0.76970      0.30400      0.01233  1.0000
  O2          0.69113      0.47946      0.33025  1.0000
  O1          0.53546      0.27254      0.67243  1.0000
  O2          0.21498      0.70155      0.49472  1.0000
  O1          0.28385      0.53376      0.85017  1.0000
  O2          0.47242      0.78928      0.16911  1.0000
  O2          0.30502      0.78483      0.31144  1.0000
  O1          0.44328      0.68637      0.99370  1.0000
  O2          0.23236      0.54392      0.63325  1.0000
  O1          0.65923      0.22093      0.81843  1.0000
  O2          0.52656      0.32388      0.47244  1.0000
  O2          0.77476      0.47777      0.15370  1.0000
  O2          0.77198      0.52961      0.02690  1.0000
  O2          0.46141      0.26713      0.34579  1.0000
  O1          0.73016      0.21292      0.67443  1.0000
  O2          0.19645      0.47784      0.51316  1.0000
  O1          0.53844      0.75740      0.85231  1.0000
  O2          0.25649      0.80387      0.18566  1.0000
  O2          0.53509      0.79959      0.29487  1.0000
  O1          0.22622      0.47061      0.95277  1.0000
  O3          0.23239      0.76310      0.62287  1.0000
  O1          0.46462      0.25575      0.78461  1.0000
  O2          0.74222      0.55177      0.45576  1.0000
  O2          0.79262      0.26523      0.13747  1.0000
  O1          0.26331      0.31436      0.89338  1.0000
  O2          0.67709      0.92451      0.22333  1.0000
  O3          0.09757      0.78831      0.54641  1.0000
  O2          0.75837      0.68709      0.38295  1.0000
  O1          0.30562      0.08744      0.71444  1.0000
  O2          0.91370      0.24224      0.06469  1.0000
  O2          0.32037      0.24932      0.41771  1.0000
  O2          0.89471      0.67710      0.09810  1.0000
  O1          0.78227      0.13977      0.75788  1.0000
  O1          0.66946      0.81127      0.93650  1.0000
  O2          0.07863      0.33791      0.58426  1.0000
  O2          0.23583      0.92236      0.25888  1.0000
  O1          0.62311      0.58809      0.98559  1.0000
  O2          0.44123      0.03901      0.31471  1.0000
  O3          0.97484      0.41872      0.64507  1.0000
  O2          0.40340      0.45613      0.47240  1.0000
  O1          0.56302      0.95485      0.80185  1.0000
  O2          0.03020      0.60400      0.15109  1.0000
  O2          0.55345      0.59507      0.32770  1.0000
  O2          0.02634      0.44343      0.00913  1.0000
  O1          0.43316      0.00281      0.65424  1.0000
  O1          0.46442      0.45769      0.83530  1.0000
  O2          0.96454      0.57379      0.49686  1.0000
  O2          0.58849      0.04152      0.16931  1.0000
  O2          0.58173      0.17305      0.24276  1.0000
  O3          0.81784      0.42488      0.56349  1.0000
  O1          0.57703      0.40997      0.91344  1.0000
  O1          0.37878      0.83293      0.72990  1.0000
  O2          0.16003      0.59338      0.07873  1.0000
  O2          0.41268      0.59392      0.39943  1.0000
  F           0.45349      0.91786      0.24185  1.0000
  F           0.05734      0.55703      0.57681  1.0000
  F           0.47405      0.58376      0.91957  1.0000
  F           0.52197      0.10132      0.73953  1.0000
  F           0.89955      0.45723      0.08120  1.0000
  F           0.54114      0.46721      0.40209  1.0000
