data_cif

_audit_creation_method             'generated by GULP'

_symmetry_space_group_name_H-M     'P 1'
_symmetry_Int_Tables_number        1
_symmetry_cell_setting             triclinic

_cell_length_a                       12.1258
_cell_length_b                       12.1618
_cell_length_c                       30.1016
_cell_angle_alpha                   89.8852
_cell_angle_beta                    90.0062
_cell_angle_gamma                  120.1788

loop_
_atom_site_label
_atom_site_fract_x
_atom_site_fract_y
_atom_site_fract_z
_atom_site_occupancy
  Si          0.69960      0.37570      0.03389  1.0000
  Ge          0.62291      0.30670      0.38071  1.0000
  Si          0.65589      0.27819      0.71496  1.0000
  Si          0.30980      0.63217      0.55624  1.0000
  Si          0.36912      0.66917      0.87913  1.0000
  Ge          0.29528      0.67722      0.21007  1.0000
  Ge          0.36529      0.68931      0.31158  1.0000
  Si          0.31908      0.60908      0.97767  1.0000
  Si          0.27870      0.66611      0.65697  1.0000
  Si          0.60531      0.28812      0.81352  1.0000
  Ge          0.68892      0.35230      0.48584  1.0000
  Si          0.68595      0.32153      0.13274  1.0000
  Si          0.52299      0.41167      0.97288  1.0000
  Ge          0.59487      0.11739      0.30437  1.0000
  Si          0.86281      0.44978      0.64950  1.0000
  Ge          0.46405      0.56765      0.49321  1.0000
  Si          0.40235      0.88310      0.81904  1.0000
  Si          0.09069      0.51398      0.13958  1.0000
  Ge          0.41045      0.53352      0.38827  1.0000
  Si          0.10485      0.56905      0.03966  1.0000
  Si          0.45133      0.87869      0.71963  1.0000
  Si          0.57070      0.46780      0.87333  1.0000
  Ge          0.91388      0.42646      0.55228  1.0000
  Ge          0.53367      0.11245      0.20018  1.0000
  Si          0.29248      0.39582      0.86228  1.0000
  Ge          0.57885      0.87917      0.18929  1.0000
  Ge          0.10247      0.70566      0.53564  1.0000
  Ge          0.70021      0.59811      0.37250  1.0000
  Si          0.37812      0.08037      0.70301  1.0000
  Si          0.89478      0.29317      0.02406  1.0000
  Ge          0.40684      0.27971      0.50575  1.0000
  Si          0.88973      0.59476      0.14790  1.0000
  Si          0.68200      0.09030      0.83011  1.0000
  Si          0.59690      0.68847      0.98919  1.0000
  Si          0.08011      0.38441      0.66521  1.0000
  Ge          0.30179      0.90970      0.32631  1.0000
  Si          0.24497      0.33189      0.96082  1.0000
  Ge          0.65355      0.89761      0.28830  1.0000
  Si          0.06467      0.73308      0.63770  1.0000
  Ge          0.75033      0.64090      0.47690  1.0000
  Si          0.32470      0.08091      0.80200  1.0000
  Si          0.88519      0.23894      0.12323  1.0000
  Ge          0.35421      0.25845      0.40549  1.0000
  Si          0.90838      0.65200      0.04890  1.0000
  Si          0.72925      0.07515      0.73141  1.0000
  Si          0.64877      0.74282      0.89007  1.0000
  Si          0.10617      0.34349      0.56461  1.0000
  Ge          0.24405      0.90937      0.22307  1.0000
  Si          0.96534      0.11495      0.97506  1.0000
  Ge          0.88135      0.84204      0.31049  1.0000
  Si          0.12565      0.00608      0.65574  1.0000
  Ge          0.03080      0.88218      0.48407  1.0000
  Si          0.11027      0.14719      0.81481  1.0000
  Ge          0.82760      0.95579      0.13595  1.0000
  Ge          0.12177      0.97971      0.38076  1.0000
  Si          0.84916      0.86746      0.03647  1.0000
  Si          0.00809      0.13589      0.71649  1.0000
  Si          0.86434      0.02312      0.87694  1.0000
  Ge          0.15731      0.11141      0.55572  1.0000
  Ge          0.95788      0.83979      0.20315  1.0000
  O2          0.92400      0.99250      0.00572  1.0000
  O1          0.01626      0.94501      0.33805  1.0000
  O2          0.04763      0.05209      0.68662  1.0000
  O1          0.06116      0.01034      0.51572  1.0000
  O2          0.98620      0.06791      0.84525  1.0000
  O1          0.91407      0.93465      0.17670  1.0000
  O1          0.32838      0.57977      0.35366  1.0000
  O2          0.39550      0.74919      0.69024  1.0000
  O2          0.23468      0.64388      0.01032  1.0000
  O2          0.64405      0.41567      0.84199  1.0000
  O3          0.56713      0.24029      0.16478  1.0000
  O1          0.78949      0.32680      0.51627  1.0000
  O2          0.57777      0.33719      0.00182  1.0000
  O2          0.74218      0.39976      0.68321  1.0000
  O1          0.67456      0.24023      0.34115  1.0000
  O3          0.43607      0.66398      0.53013  1.0000
  O3          0.20201      0.55020      0.17443  1.0000
  O2          0.32966      0.75803      0.85043  1.0000
  O2          0.11887      0.20518      0.97930  1.0000
  O1          0.78532      0.90528      0.31329  1.0000
  O2          0.06552      0.85373      0.66206  1.0000
  O1          0.88068      0.76630      0.50058  1.0000
  O2          0.20066      0.08501      0.82056  1.0000
  O3          0.88475      0.11774      0.14273  1.0000
  O1          0.21075      0.13649      0.38203  1.0000
  O2          0.91095      0.77738      0.02807  1.0000
  O2          0.85471      0.07334      0.71293  1.0000
  O2          0.77302      0.87081      0.87107  1.0000
  O3          0.13392      0.23866      0.54660  1.0000
  O1          0.11931      0.91310      0.19768  1.0000
  O1          0.92134      0.82117      0.25811  1.0000
  O3          0.10467      0.03858      0.60664  1.0000
  O2          0.92054      0.06226      0.92587  1.0000
  O2          0.05711      0.13410      0.76538  1.0000
  O3          0.87016      0.91758      0.08590  1.0000
  O1          0.03465      0.91128      0.42888  1.0000
  O2          0.89817      0.19630      0.98763  1.0000
  O1          0.80730      0.69276      0.33294  1.0000
  O2          0.27739      0.07733      0.66646  1.0000
  O1          0.13113      0.82647      0.49913  1.0000
  O2          0.19218      0.29735      0.82575  1.0000
  O1          0.67024      0.87155      0.14473  1.0000
  O1          0.21156      0.90807      0.37011  1.0000
  O2          0.69724      0.78511      0.02588  1.0000
  O2          0.07395      0.28333      0.70155  1.0000
  O2          0.78204      0.09165      0.86644  1.0000
  O1          0.31537      0.17386      0.54831  1.0000
  O3          0.88007      0.68448      0.18404  1.0000
  O1          0.31961      0.61930      0.25941  1.0000
  O2          0.33793      0.66955      0.60860  1.0000
  O2          0.31550      0.66624      0.92896  1.0000
  O2          0.65761      0.33791      0.76344  1.0000
  O2          0.63573      0.32048      0.08242  1.0000
  O1          0.70379      0.32671      0.42992  1.0000
  O2          0.36822      0.32313      0.97711  1.0000
  O1          0.68928      0.05222      0.29630  1.0000
  O2          0.93408      0.60581      0.65230  1.0000
  O1          0.62422      0.66616      0.48367  1.0000
  O2          0.31569      0.95126      0.82113  1.0000
  O2          0.01444      0.36005      0.14185  1.0000
  O1          0.33948      0.37484      0.37749  1.0000
  O2          0.03982      0.65761      0.03377  1.0000
  O2          0.60565      0.94400      0.71426  1.0000
  O2          0.65722      0.62265      0.87025  1.0000
  O3          0.97663      0.32273      0.54492  1.0000
  O1          0.37156      0.01944      0.19326  1.0000
  O2          0.76684      0.29982      0.01331  1.0000
  O1          0.66082      0.44919      0.35580  1.0000
  O2          0.51297      0.20980      0.69321  1.0000
  O3          0.24797      0.70848      0.53455  1.0000
  O2          0.29315      0.52903      0.85582  1.0000
  O1          0.43146      0.75335      0.17800  1.0000
  O1          0.27492      0.75694      0.32403  1.0000
  O2          0.46295      0.68487      0.99825  1.0000
  O2          0.20516      0.52131      0.67576  1.0000
  O2          0.68151      0.22295      0.83576  1.0000
  O1          0.53260      0.25376      0.50216  1.0000
  O2          0.75590      0.46283      0.15415  1.0000
  O2          0.78386      0.52951      0.02865  1.0000
  O1          0.45998      0.21366      0.38419  1.0000
  O2          0.73050      0.19844      0.71067  1.0000
  O2          0.22583      0.47915      0.54824  1.0000
  O2          0.52335      0.74376      0.87243  1.0000
  O1          0.21324      0.75575      0.21806  1.0000
  O1          0.52771      0.78117      0.31782  1.0000
  O2          0.24709      0.45496      0.98171  1.0000
  O2          0.18539      0.72407      0.65582  1.0000
  O2          0.45132      0.20536      0.81977  1.0000
  O1          0.71647      0.50151      0.50115  1.0000
  O2          0.75987      0.24150      0.14020  1.0000
  O2          0.22556      0.31982      0.90762  1.0000
  O1          0.66049      0.86104      0.23354  1.0000
  O3          0.07739      0.76486      0.58603  1.0000
  O1          0.78440      0.63954      0.42148  1.0000
  O2          0.30789      0.07987      0.74875  1.0000
  O2          0.88635      0.21980      0.06978  1.0000
  O1          0.30723      0.21479      0.46065  1.0000
  O2          0.90166      0.67055      0.10182  1.0000
  O2          0.74762      0.08068      0.78453  1.0000
  O2          0.66714      0.75774      0.94324  1.0000
  O2          0.09770      0.33050      0.61880  1.0000
  O1          0.25193      0.94989      0.27828  1.0000
  O2          0.58012      0.54949      0.99666  1.0000
  O1          0.46059      0.01286      0.33419  1.0000
  O2          0.95489      0.39731      0.66814  1.0000
  O1          0.43489      0.42978      0.51926  1.0000
  O2          0.54297      0.96981      0.84056  1.0000
  O2          0.01345      0.58162      0.15875  1.0000
  O1          0.57077      0.61957      0.37472  1.0000
  O2          0.02296      0.42938      0.01719  1.0000
  O2          0.39009      0.95510      0.69518  1.0000
  O2          0.43021      0.41167      0.85123  1.0000
  O1          0.97369      0.56776      0.51855  1.0000
  O1          0.60653      0.03149      0.18256  1.0000
  O1          0.56890      0.16938      0.25412  1.0000
  O3          0.81485      0.40216      0.60068  1.0000
  O2          0.57241      0.41470      0.92258  1.0000
  O2          0.40152      0.82908      0.76958  1.0000
  O2          0.15059      0.56797      0.09032  1.0000
  O1          0.38528      0.55364      0.44409  1.0000
  F           0.46187      0.88951      0.25132  1.0000
  F           0.05556      0.53045      0.58927  1.0000
  F           0.44331      0.54132      0.92468  1.0000
  F           0.53027      0.08338      0.76470  1.0000
  F           0.88982      0.44354      0.08598  1.0000
  F           0.51534      0.41008      0.43433  1.0000
