data_cif

_audit_creation_method             'generated by GULP'

_symmetry_space_group_name_H-M     'P 1'
_symmetry_Int_Tables_number        1
_symmetry_cell_setting             triclinic

_cell_length_a                       12.1853
_cell_length_b                       12.0987
_cell_length_c                       30.0831
_cell_angle_alpha                   90.4725
_cell_angle_beta                    90.0159
_cell_angle_gamma                  120.1533

loop_
_atom_site_label
_atom_site_fract_x
_atom_site_fract_y
_atom_site_fract_z
_atom_site_occupancy
  Ge          0.69960      0.37570      0.03389  1.0000
  Si          0.63570      0.35526      0.36707  1.0000
  Si          0.69512      0.32795      0.68772  1.0000
  Si          0.31431      0.64958      0.52904  1.0000
  Ge          0.38064      0.69807      0.86045  1.0000
  Si          0.34054      0.71111      0.20589  1.0000
  Si          0.40236      0.73278      0.30646  1.0000
  Ge          0.33281      0.63650      0.96084  1.0000
  Si          0.30493      0.70156      0.62756  1.0000
  Ge          0.63302      0.30842      0.78544  1.0000
  Si          0.69457      0.41071      0.46561  1.0000
  Ge          0.68792      0.31049      0.13637  1.0000
  Ge          0.54055      0.41670      0.95930  1.0000
  Si          0.60321      0.14796      0.30267  1.0000
  Si          0.90540      0.49635      0.62362  1.0000
  Si          0.49307      0.61338      0.46903  1.0000
  Si          0.41618      0.90587      0.79341  1.0000
  Ge          0.12625      0.55002      0.13990  1.0000
  Si          0.44005      0.56033      0.36954  1.0000
  Ge          0.13495      0.60080      0.03464  1.0000
  Si          0.47880      0.91364      0.69183  1.0000
  Ge          0.57813      0.46379      0.85435  1.0000
  Si          0.91100      0.44637      0.52409  1.0000
  Ge          0.52591      0.09482      0.20645  1.0000
  Ge          0.29224      0.40917      0.84547  1.0000
  Si          0.62063      0.91310      0.18687  1.0000
  Si          0.11665      0.72560      0.51254  1.0000
  Si          0.71529      0.63304      0.35429  1.0000
  Si          0.41079      0.12865      0.67730  1.0000
  Ge          0.91573      0.30627      0.01896  1.0000
  Si          0.42114      0.33452      0.48085  1.0000
  Ge          0.89693      0.60071      0.15488  1.0000
  Ge          0.70716      0.11286      0.80962  1.0000
  Ge          0.61195      0.70771      0.98038  1.0000
  Si          0.10804      0.42371      0.63951  1.0000
  Si          0.32159      0.93302      0.31771  1.0000
  Ge          0.25384      0.34965      0.94909  1.0000
  Si          0.68252      0.94545      0.28810  1.0000
  Si          0.10220      0.77494      0.61136  1.0000
  Si          0.76809      0.69056      0.45337  1.0000
  Ge          0.34579      0.11885      0.77913  1.0000
  Ge          0.92214      0.25821      0.12192  1.0000
  Si          0.35867      0.28190      0.38206  1.0000
  Ge          0.91735      0.65553      0.05518  1.0000
  Si          0.76060      0.11085      0.70645  1.0000
  Ge          0.66157      0.75366      0.87838  1.0000
  Si          0.10838      0.36897      0.54038  1.0000
  Si          0.25129      0.91130      0.21762  1.0000
  Ge          0.97658      0.12004      0.96295  1.0000
  Si          0.89397      0.87995      0.30406  1.0000
  Si          0.16376      0.05467      0.62581  1.0000
  Si          0.04850      0.90560      0.46465  1.0000
  Si          0.11563      0.16708      0.78837  1.0000
  Ge          0.86722      0.97719      0.13866  1.0000
  Si          0.14078      0.00182      0.36616  1.0000
  Ge          0.86097      0.88099      0.03487  1.0000
  Si          0.03736      0.17377      0.68796  1.0000
  Ge          0.88886      0.03387      0.85842  1.0000
  Si          0.17254      0.15290      0.52733  1.0000
  Si          0.96814      0.84490      0.20635  1.0000
  O1          0.91708      0.97949      0.98894  1.0000
  O2          0.02131      0.96104      0.33352  1.0000
  O2          0.07908      0.09474      0.65542  1.0000
  O2          0.09611      0.03133      0.49499  1.0000
  O3          0.98581      0.07695      0.81231  1.0000
  O3          0.95476      0.92893      0.16841  1.0000
  O2          0.36727      0.61453      0.33912  1.0000
  O2          0.42528      0.78792      0.66029  1.0000
  O1          0.25560      0.68343      0.99918  1.0000
  O1          0.67191      0.44325      0.81811  1.0000
  O1          0.56420      0.21935      0.16948  1.0000
  O2          0.78378      0.37183      0.49375  1.0000
  O1          0.58426      0.33224      0.99321  1.0000
  O2          0.77591      0.43903      0.65203  1.0000
  O2          0.67414      0.26854      0.33703  1.0000
  O2          0.44102      0.68783      0.50008  1.0000
  O3          0.25753      0.58988      0.17575  1.0000
  O3          0.33959      0.78021      0.82185  1.0000
  O1          0.13348      0.21775      0.97505  1.0000
  O2          0.80500      0.94402      0.30950  1.0000
  O2          0.10119      0.90099      0.63011  1.0000
  O2          0.89665      0.81584      0.47182  1.0000
  O3          0.20629      0.10844      0.79708  1.0000
  O1          0.92414      0.13478      0.14951  1.0000
  O2          0.23145      0.15578      0.36330  1.0000
  O1          0.93499      0.79757      0.03280  1.0000
  O2          0.88419      0.11212      0.68468  1.0000
  O1          0.80133      0.87319      0.85521  1.0000
  O2          0.11118      0.24392      0.52150  1.0000
  O2          0.11564      0.88625      0.20218  1.0000
  O2          0.93714      0.88706      0.25368  1.0000
  O2          0.15613      0.09737      0.57633  1.0000
  O1          0.97205      0.09461      0.90594  1.0000
  O2          0.08419      0.16345      0.73603  1.0000
  O1          0.88479      0.96891      0.08269  1.0000
  O2          0.08319      0.95446      0.41461  1.0000
  O1          0.90007      0.20150      0.97672  1.0000
  O2          0.81299      0.73123      0.31782  1.0000
  O2          0.31214      0.12169      0.63908  1.0000
  O2          0.11726      0.82419      0.47584  1.0000
  O3          0.18337      0.31197      0.80442  1.0000
  O3          0.70757      0.88818      0.15296  1.0000
  O2          0.22565      0.93714      0.35444  1.0000
  O1          0.70058      0.78862      0.02633  1.0000
  O2          0.10467      0.32414      0.67601  1.0000
  O1          0.79016      0.09629      0.85176  1.0000
  O2          0.32295      0.23578      0.51737  1.0000
  O3          0.88539      0.69669      0.19812  1.0000
  O2          0.34712      0.67492      0.25762  1.0000
  O2          0.36584      0.70379      0.57912  1.0000
  O1          0.34199      0.72262      0.91336  1.0000
  O3          0.70097      0.39197      0.73435  1.0000
  O1          0.63579      0.34118      0.08654  1.0000
  O2          0.69195      0.35580      0.41605  1.0000
  O1          0.38443      0.36005      0.97356  1.0000
  O2          0.68787      0.07595      0.30450  1.0000
  O2          0.97201      0.65146      0.62862  1.0000
  O2          0.64774      0.70051      0.47205  1.0000
  O3          0.33110      0.97316      0.79298  1.0000
  O1          0.03592      0.38921      0.14983  1.0000
  O2          0.35140      0.40546      0.36489  1.0000
  O1          0.07021      0.69620      0.04293  1.0000
  O2          0.63242      0.98426      0.68844  1.0000
  O1          0.67391      0.62222      0.87084  1.0000
  O2          0.97887      0.35956      0.52125  1.0000
  O3          0.35963      0.03866      0.19682  1.0000
  O1          0.76509      0.28296      0.02116  1.0000
  O2          0.70987      0.49780      0.34552  1.0000
  O2          0.54877      0.25312      0.66848  1.0000
  O2          0.24935      0.72557      0.50662  1.0000
  O1          0.27663      0.54200      0.84469  1.0000
  O2          0.48297      0.78211      0.18602  1.0000
  O2          0.33120      0.80560      0.32603  1.0000
  O1          0.46713      0.68647      0.99327  1.0000
  O2          0.23766      0.55907      0.64909  1.0000
  O1          0.72404      0.25974      0.81605  1.0000
  O2          0.55398      0.33568      0.48809  1.0000
  O1          0.77738      0.45212      0.16655  1.0000
  O1          0.79425      0.53703      0.02469  1.0000
  O2          0.48155      0.28170      0.36207  1.0000
  O2          0.75668      0.23521      0.68987  1.0000
  O2          0.23291      0.49506      0.52254  1.0000
  O1          0.53877      0.75526      0.85027  1.0000
  O2          0.26773      0.79183      0.20114  1.0000
  O2          0.55438      0.82484      0.30681  1.0000
  O1          0.22756      0.47257      0.96226  1.0000
  O2          0.22586      0.77673      0.63182  1.0000
  O1          0.46871      0.24802      0.80314  1.0000
  O2          0.76694      0.56530      0.47211  1.0000
  O1          0.77301      0.23553      0.12492  1.0000
  O1          0.24073      0.31833      0.89246  1.0000
  O2          0.69414      0.93590      0.23515  1.0000
  O2          0.10702      0.79223      0.55813  1.0000
  O2          0.78418      0.70519      0.40018  1.0000
  O3          0.34431      0.13702      0.72140  1.0000
  O1          0.95931      0.25849      0.06653  1.0000
  O2          0.34603      0.26539      0.43531  1.0000
  O1          0.87823      0.67467      0.10919  1.0000
  O3          0.77297      0.10279      0.75870  1.0000
  O1          0.66997      0.80083      0.93306  1.0000
  O2          0.10754      0.35293      0.59360  1.0000
  O2          0.25047      0.92233      0.27177  1.0000
  O1          0.62809      0.57543      0.97341  1.0000
  O2          0.46047      0.05675      0.32305  1.0000
  O2          0.98421      0.43730      0.64732  1.0000
  O2          0.43732      0.47325      0.49111  1.0000
  O3          0.55118      0.99135      0.81745  1.0000
  O1          0.04909      0.62571      0.15921  1.0000
  O2          0.57812      0.62004      0.34608  1.0000
  O1          0.02492      0.46037      0.00758  1.0000
  O2          0.42578      0.00351      0.67405  1.0000
  O1          0.44240      0.44983      0.83034  1.0000
  O2          0.99614      0.58614      0.50189  1.0000
  O3          0.61121      0.03420      0.17390  1.0000
  O3          0.60338      0.19856      0.25465  1.0000
  O2          0.85809      0.44696      0.57339  1.0000
  O1          0.54725      0.38107      0.90408  1.0000
  O2          0.43558      0.87083      0.74230  1.0000
  O1          0.18417      0.57805      0.08674  1.0000
  O2          0.44025      0.61279      0.41936  1.0000
  F           0.48166      0.95959      0.24414  1.0000
  F           0.11355      0.57657      0.57688  1.0000
  F           0.43609      0.57028      0.91514  1.0000
  F           0.56489      0.15450      0.75233  1.0000
  F           0.91290      0.48515      0.08782  1.0000
  F           0.56561      0.48361      0.41747  1.0000
