data_cif

_audit_creation_method             'generated by GULP'

_symmetry_space_group_name_H-M     'P 1'
_symmetry_Int_Tables_number        1
_symmetry_cell_setting             triclinic

_cell_length_a                       12.1461
_cell_length_b                       12.0993
_cell_length_c                       30.1561
_cell_angle_alpha                   89.4870
_cell_angle_beta                    89.9296
_cell_angle_gamma                  119.7636

loop_
_atom_site_label
_atom_site_fract_x
_atom_site_fract_y
_atom_site_fract_z
_atom_site_occupancy
  Si          0.69960      0.37570      0.03389  1.0000
  Ge          0.62713      0.32555      0.38240  1.0000
  Si          0.66664      0.29047      0.71131  1.0000
  Si          0.29801      0.63787      0.55397  1.0000
  Si          0.37664      0.67246      0.87369  1.0000
  Ge          0.31500      0.69729      0.20596  1.0000
  Ge          0.37128      0.69229      0.30717  1.0000
  Si          0.32295      0.61239      0.97214  1.0000
  Si          0.28921      0.67894      0.65269  1.0000
  Si          0.61232      0.29161      0.80969  1.0000
  Ge          0.69166      0.38730      0.48278  1.0000
  Si          0.68188      0.32019      0.13531  1.0000
  Si          0.52594      0.41489      0.97075  1.0000
  Ge          0.58108      0.12559      0.30764  1.0000
  Si          0.88319      0.46747      0.65041  1.0000
  Ge          0.45435      0.58549      0.48689  1.0000
  Si          0.41395      0.88845      0.81287  1.0000
  Si          0.11765      0.52497      0.13719  1.0000
  Ge          0.40767      0.53140      0.38285  1.0000
  Si          0.11076      0.57459      0.03485  1.0000
  Si          0.46591      0.88918      0.71341  1.0000
  Si          0.57659      0.46777      0.87110  1.0000
  Si          0.89607      0.42651      0.55091  1.0000
  Ge          0.52590      0.12190      0.20385  1.0000
  Si          0.29901      0.39659      0.85866  1.0000
  Ge          0.59840      0.90446      0.18807  1.0000
  Si          0.09437      0.70836      0.53927  1.0000
  Ge          0.69994      0.61216      0.36802  1.0000
  Si          0.39108      0.09340      0.69807  1.0000
  Si          0.89818      0.29278      0.01873  1.0000
  Ge          0.41027      0.30671      0.50180  1.0000
  Ge          0.90329      0.59866      0.14998  1.0000
  Si          0.69023      0.09363      0.82487  1.0000
  Si          0.59854      0.69182      0.98482  1.0000
  Si          0.09385      0.40165      0.66446  1.0000
  Ge          0.29821      0.90241      0.32537  1.0000
  Si          0.24946      0.33467      0.95741  1.0000
  Ge          0.65578      0.91214      0.29122  1.0000
  Si          0.07996      0.74622      0.63841  1.0000
  Ge          0.74367      0.67038      0.47029  1.0000
  Si          0.33513      0.08683      0.79705  1.0000
  Ge          0.89712      0.26999      0.11775  1.0000
  Ge          0.34026      0.24873      0.40238  1.0000
  Si          0.91369      0.66004      0.04832  1.0000
  Si          0.74199      0.08597      0.72639  1.0000
  Si          0.65531      0.74506      0.88601  1.0000
  Si          0.10081      0.35630      0.56571  1.0000
  Ge          0.24516      0.91219      0.22469  1.0000
  Si          0.97021      0.11890      0.96900  1.0000
  Ge          0.88032      0.85452      0.30840  1.0000
  Si          0.13960      0.02083      0.65134  1.0000
  Ge          0.02381      0.88653      0.48516  1.0000
  Si          0.11859      0.14946      0.81042  1.0000
  Ge          0.84415      0.97991      0.13133  1.0000
  Ge          0.11520      0.96512      0.38035  1.0000
  Si          0.84700      0.87331      0.03195  1.0000
  Si          0.02190      0.15015      0.71260  1.0000
  Si          0.87197      0.02473      0.87162  1.0000
  Ge          0.15923      0.13153      0.55244  1.0000
  Ge          0.96170      0.85224      0.20222  1.0000
  O2          0.92458      0.99426      0.99930  1.0000
  O1          0.01890      0.94204      0.33518  1.0000
  O2          0.06412      0.07134      0.68122  1.0000
  O1          0.08409      0.03065      0.50900  1.0000
  O2          0.99364      0.06762      0.84021  1.0000
  O1          0.93109      0.93486      0.16341  1.0000
  O1          0.32720      0.56754      0.34430  1.0000
  O2          0.41174      0.76181      0.68378  1.0000
  O2          0.23653      0.64790      0.00395  1.0000
  O2          0.65004      0.41604      0.84001  1.0000
  O3          0.55863      0.24612      0.16625  1.0000
  O3          0.78259      0.34912      0.51787  1.0000
  O2          0.58094      0.34267      0.00178  1.0000
  O2          0.75433      0.41354      0.68002  1.0000
  O1          0.66759      0.25113      0.34227  1.0000
  O3          0.41486      0.67710      0.52104  1.0000
  O3          0.24201      0.57789      0.16615  1.0000
  O2          0.33946      0.76143      0.84390  1.0000
  O2          0.12260      0.20793      0.97544  1.0000
  O1          0.78348      0.91697      0.31779  1.0000
  O2          0.07882      0.86882      0.65998  1.0000
  O1          0.86601      0.79894      0.49639  1.0000
  O2          0.20979      0.08786      0.81596  1.0000
  O1          0.89504      0.13364      0.14011  1.0000
  O1          0.20248      0.12614      0.38148  1.0000
  O2          0.90807      0.78010      0.02630  1.0000
  O2          0.86924      0.08782      0.70813  1.0000
  O2          0.78040      0.87184      0.86707  1.0000
  O3          0.09907      0.23416      0.54616  1.0000
  O1          0.12176      0.92313      0.20146  1.0000
  O1          0.89777      0.85767      0.25191  1.0000
  O3          0.11559      0.04572      0.60149  1.0000
  O2          0.93059      0.06699      0.91990  1.0000
  O2          0.06635      0.13834      0.76130  1.0000
  O3          0.86283      0.92903      0.07953  1.0000
  O1          0.03156      0.89865      0.42804  1.0000
  O2          0.90411      0.20380      0.97955  1.0000
  O1          0.80500      0.69953      0.32637  1.0000
  O2          0.29093      0.09150      0.66162  1.0000
  O3          0.10261      0.80671      0.50189  1.0000
  O2          0.19967      0.29903      0.82255  1.0000
  O1          0.68609      0.89409      0.14555  1.0000
  O1          0.20784      0.89917      0.37045  1.0000
  O2          0.69670      0.78941      0.02105  1.0000
  O2          0.08995      0.30012      0.70103  1.0000
  O2          0.78948      0.09316      0.86110  1.0000
  O1          0.31706      0.20915      0.54605  1.0000
  O1          0.89681      0.69207      0.19051  1.0000
  O1          0.28717      0.63109      0.25875  1.0000
  O2          0.35030      0.68697      0.60380  1.0000
  O2          0.32220      0.67091      0.92337  1.0000
  O2          0.66716      0.34724      0.76023  1.0000
  O2          0.64308      0.31910      0.08290  1.0000
  O1          0.66590      0.29911      0.43524  1.0000
  O2          0.37197      0.32668      0.97549  1.0000
  O1          0.64353      0.02837      0.31849  1.0000
  O2          0.94963      0.62178      0.65492  1.0000
  O1          0.61395      0.65295      0.49796  1.0000
  O2          0.32707      0.95656      0.81594  1.0000
  O3          0.04819      0.37369      0.14068  1.0000
  O1          0.31198      0.37266      0.39340  1.0000
  O2          0.03976      0.65857      0.03096  1.0000
  O2          0.62003      0.95530      0.70924  1.0000
  O2          0.66341      0.62265      0.86826  1.0000
  O2          0.97170      0.34811      0.54783  1.0000
  O1          0.36857      0.06342      0.21551  1.0000
  O2          0.77071      0.30473      0.01253  1.0000
  O1          0.72327      0.48372      0.37039  1.0000
  O2          0.52473      0.22478      0.68985  1.0000
  O2          0.22720      0.70946      0.53279  1.0000
  O2          0.30087      0.53097      0.85205  1.0000
  O1          0.47057      0.75347      0.19234  1.0000
  O1          0.32462      0.78076      0.33847  1.0000
  O2          0.46409      0.68713      0.99400  1.0000
  O2          0.22219      0.53563      0.67408  1.0000
  O2          0.68810      0.22551      0.83212  1.0000
  O1          0.55718      0.33362      0.51530  1.0000
  O3          0.75571      0.46359      0.15344  1.0000
  O2          0.79032      0.52837      0.03446  1.0000
  O1          0.46715      0.26159      0.37291  1.0000
  O2          0.73954      0.20892      0.70648  1.0000
  O2          0.22535      0.48347      0.54779  1.0000
  O2          0.53000      0.74382      0.86761  1.0000
  O1          0.25116      0.79331      0.19586  1.0000
  O1          0.53330      0.76013      0.30153  1.0000
  O2          0.24842      0.45782      0.97731  1.0000
  O2          0.20524      0.74891      0.65773  1.0000
  O2          0.45869      0.21143      0.81563  1.0000
  O1          0.77732      0.54889      0.47576  1.0000
  O3          0.75375      0.24023      0.14483  1.0000
  O2          0.23310      0.32189      0.90438  1.0000
  O1          0.68922      0.94500      0.23552  1.0000
  O2          0.08427      0.77239      0.58539  1.0000
  O1          0.74363      0.70522      0.41462  1.0000
  O2          0.31953      0.08892      0.74395  1.0000
  O3          0.89137      0.21574      0.06235  1.0000
  O1          0.33994      0.20732      0.45710  1.0000
  O3          0.92019      0.68062      0.10043  1.0000
  O2          0.75838      0.08792      0.77951  1.0000
  O2          0.66991      0.76152      0.93908  1.0000
  O2          0.10102      0.33545      0.61907  1.0000
  O1          0.20226      0.87492      0.27958  1.0000
  O2          0.58602      0.55390      0.99364  1.0000
  O1          0.42560      0.05471      0.32457  1.0000
  O2          0.96672      0.41038      0.67240  1.0000
  O1          0.37780      0.42960      0.50337  1.0000
  O2          0.55296      0.97106      0.83521  1.0000
  O3          0.03047      0.57731      0.16025  1.0000
  O1          0.54633      0.56556      0.35528  1.0000
  O2          0.02262      0.43362      0.01512  1.0000
  O2          0.40915      0.97172      0.69003  1.0000
  O2          0.43743      0.41373      0.84914  1.0000
  O2          0.97144      0.57086      0.53024  1.0000
  O1          0.54715      0.01029      0.17632  1.0000
  O1          0.60794      0.17756      0.25281  1.0000
  O2          0.83745      0.42079      0.60018  1.0000
  O2          0.57597      0.41421      0.92090  1.0000
  O2          0.41515      0.83797      0.76337  1.0000
  O2          0.15522      0.57526      0.08540  1.0000
  O1          0.43059      0.61212      0.43227  1.0000
  F           0.43253      0.89453      0.26024  1.0000
  F           0.09685      0.55554      0.60212  1.0000
  F           0.44826      0.54307      0.92356  1.0000
  F           0.54215      0.09429      0.76227  1.0000
  F           0.89861      0.41647      0.09311  1.0000
  F           0.54106      0.44095      0.43880  1.0000
