data_cif

_audit_creation_method             'generated by GULP'

_symmetry_space_group_name_H-M     'P 1'
_symmetry_Int_Tables_number        1
_symmetry_cell_setting             triclinic

_cell_length_a                       12.0896
_cell_length_b                       12.1474
_cell_length_c                       30.1889
_cell_angle_alpha                   89.9526
_cell_angle_beta                    90.4833
_cell_angle_gamma                  119.8489

loop_
_atom_site_label
_atom_site_fract_x
_atom_site_fract_y
_atom_site_fract_z
_atom_site_occupancy
  Ge          0.69960      0.37570      0.03389  1.0000
  Si          0.60004      0.33695      0.36677  1.0000
  Si          0.66633      0.30537      0.68739  1.0000
  Si          0.28099      0.62776      0.52941  1.0000
  Ge          0.37658      0.68529      0.85552  1.0000
  Si          0.31383      0.69943      0.20506  1.0000
  Si          0.36366      0.71449      0.30645  1.0000
  Ge          0.32456      0.63394      0.95696  1.0000
  Si          0.27516      0.67940      0.62749  1.0000
  Ge          0.60607      0.28188      0.78469  1.0000
  Si          0.65998      0.39009      0.46489  1.0000
  Ge          0.70521      0.31747      0.13458  1.0000
  Ge          0.54482      0.42661      0.95770  1.0000
  Si          0.56190      0.12406      0.30495  1.0000
  Si          0.87579      0.47659      0.62376  1.0000
  Si          0.45619      0.58985      0.46851  1.0000
  Si          0.39182      0.88542      0.79160  1.0000
  Ge          0.12602      0.52525      0.13645  1.0000
  Si          0.40244      0.54021      0.36910  1.0000
  Ge          0.12409      0.58231      0.03300  1.0000
  Si          0.45121      0.89184      0.69034  1.0000
  Ge          0.58752      0.46353      0.85249  1.0000
  Si          0.87723      0.42741      0.52451  1.0000
  Si          0.51824      0.12811      0.20266  1.0000
  Ge          0.30237      0.40413      0.83743  1.0000
  Si          0.59155      0.91710      0.19109  1.0000
  Si          0.08256      0.70515      0.51345  1.0000
  Si          0.68018      0.61334      0.35436  1.0000
  Si          0.38287      0.10599      0.67612  1.0000
  Ge          0.90884      0.29636      0.01799  1.0000
  Si          0.38459      0.31222      0.48082  1.0000
  Ge          0.91305      0.59768      0.15804  1.0000
  Ge          0.68361      0.08781      0.80944  1.0000
  Ge          0.61313      0.71246      0.96718  1.0000
  Si          0.07971      0.40272      0.64002  1.0000
  Si          0.27968      0.91187      0.32116  1.0000
  Ge          0.25604      0.35005      0.94015  1.0000
  Si          0.64687      0.92754      0.29142  1.0000
  Si          0.07084      0.75420      0.61194  1.0000
  Si          0.73334      0.66861      0.45313  1.0000
  Ge          0.31918      0.09594      0.77747  1.0000
  Ge          0.91847      0.24530      0.11885  1.0000
  Si          0.32187      0.26331      0.38219  1.0000
  Ge          0.91437      0.66003      0.05568  1.0000
  Si          0.73232      0.08807      0.70624  1.0000
  Ge          0.66060      0.74635      0.86629  1.0000
  Si          0.07590      0.34917      0.54112  1.0000
  Ge          0.26149      0.91246      0.22271  1.0000
  Ge          0.97691      0.11736      0.96320  1.0000
  Si          0.86125      0.86152      0.30617  1.0000
  Si          0.13332      0.03336      0.62671  1.0000
  Si          0.01247      0.88622      0.46722  1.0000
  Si          0.10520      0.16216      0.78803  1.0000
  Ge          0.83651      0.95958      0.13953  1.0000
  Si          0.10582      0.98423      0.36991  1.0000
  Ge          0.85008      0.88363      0.03318  1.0000
  Si          0.00911      0.15375      0.68905  1.0000
  Ge          0.87652      0.02463      0.85937  1.0000
  Si          0.13706      0.13190      0.52885  1.0000
  Ge          0.97012      0.84333      0.20974  1.0000
  O1          0.95833      0.01584      0.00535  1.0000
  O2          0.98359      0.93884      0.33819  1.0000
  O2          0.05467      0.07402      0.65915  1.0000
  O2          0.05622      0.00686      0.49915  1.0000
  O3          0.99897      0.12354      0.82449  1.0000
  O1          0.89616      0.88299      0.16896  1.0000
  O2          0.32979      0.59499      0.33842  1.0000
  O2          0.39740      0.76617      0.65955  1.0000
  O1          0.24428      0.66977      0.99644  1.0000
  O1          0.66379      0.41756      0.81778  1.0000
  O3          0.57893      0.24937      0.17253  1.0000
  O2          0.75030      0.35245      0.49378  1.0000
  O1          0.58253      0.34267      0.99488  1.0000
  O2          0.74631      0.41738      0.65222  1.0000
  O2          0.63595      0.25069      0.33541  1.0000
  O2          0.40615      0.66486      0.49966  1.0000
  O3          0.25515      0.57735      0.17383  1.0000
  O3          0.31848      0.75880      0.81922  1.0000
  O1          0.13814      0.21680      0.96426  1.0000
  O2          0.76908      0.92366      0.31208  1.0000
  O2          0.07008      0.88012      0.63019  1.0000
  O2          0.85985      0.79339      0.47246  1.0000
  O3          0.17356      0.07862      0.79382  1.0000
  O1          0.92570      0.11895      0.14373  1.0000
  O2          0.19484      0.13702      0.36403  1.0000
  O1          0.92012      0.79103      0.03268  1.0000
  O2          0.85599      0.09189      0.68325  1.0000
  O1          0.79946      0.87152      0.84293  1.0000
  O2          0.07711      0.22426      0.52217  1.0000
  O1          0.12691      0.91818      0.20165  1.0000
  O3          0.91205      0.87672      0.25761  1.0000
  O2          0.12189      0.08078      0.57842  1.0000
  O1          0.93587      0.04505      0.91202  1.0000
  O2          0.04196      0.14114      0.73924  1.0000
  O1          0.82137      0.90731      0.08636  1.0000
  O2          0.05035      0.94469      0.41875  1.0000
  O1          0.89970      0.19919      0.97381  1.0000
  O2          0.77736      0.71153      0.31786  1.0000
  O2          0.28356      0.09873      0.63778  1.0000
  O2          0.08262      0.80480      0.47729  1.0000
  O3          0.20874      0.30890      0.79356  1.0000
  O3          0.67877      0.91184      0.15377  1.0000
  O2          0.19133      0.91840      0.36071  1.0000
  O1          0.70625      0.81954      0.00781  1.0000
  O2          0.07817      0.30310      0.67635  1.0000
  O1          0.76762      0.07571      0.85291  1.0000
  O2          0.28734      0.21238      0.51720  1.0000
  O1          0.91060      0.68244      0.20297  1.0000
  O2          0.30972      0.65863      0.25738  1.0000
  O2          0.33507      0.68144      0.57911  1.0000
  O1          0.34549      0.71790      0.90830  1.0000
  O3          0.66921      0.36677      0.73367  1.0000
  O1          0.63951      0.28778      0.08174  1.0000
  O2          0.65815      0.33570      0.41545  1.0000
  O1          0.38804      0.37501      0.96957  1.0000
  O2          0.64711      0.05403      0.30875  1.0000
  O2          0.94109      0.63051      0.62919  1.0000
  O2          0.61123      0.67660      0.47129  1.0000
  O3          0.30512      0.95156      0.79205  1.0000
  O1          0.07151      0.36644      0.12901  1.0000
  O2          0.31404      0.38623      0.36463  1.0000
  O1          0.02271      0.64090      0.02510  1.0000
  O2          0.60550      0.96350      0.68697  1.0000
  O1          0.68995      0.62476      0.86062  1.0000
  O2          0.94562      0.34083      0.52222  1.0000
  O3          0.36724      0.06069      0.19776  1.0000
  O1          0.79118      0.32933      0.00432  1.0000
  O2          0.67498      0.47879      0.34527  1.0000
  O2          0.52045      0.22957      0.66713  1.0000
  O2          0.21570      0.70463      0.50727  1.0000
  O1          0.27563      0.52952      0.84078  1.0000
  O2          0.46042      0.78311      0.18875  1.0000
  O2          0.29124      0.78408      0.32784  1.0000
  O1          0.46586      0.68165      0.98464  1.0000
  O2          0.20937      0.53774      0.64920  1.0000
  O1          0.69921      0.23276      0.81450  1.0000
  O2          0.51920      0.31420      0.48737  1.0000
  O1          0.76203      0.47183      0.15051  1.0000
  O1          0.76355      0.53372      0.04704  1.0000
  O2          0.44530      0.26353      0.36197  1.0000
  O2          0.72926      0.21365      0.69092  1.0000
  O2          0.20010      0.47432      0.52304  1.0000
  O1          0.53332      0.74538      0.83981  1.0000
  O3          0.23009      0.76732      0.19596  1.0000
  O2          0.51701      0.80534      0.30728  1.0000
  O1          0.22771      0.47405      0.94681  1.0000
  O2          0.19550      0.75450      0.63200  1.0000
  O1          0.44169      0.22515      0.80157  1.0000
  O2          0.73299      0.54353      0.47144  1.0000
  O1          0.79537      0.24769      0.14626  1.0000
  O1          0.25514      0.31375      0.88484  1.0000
  O2          0.66318      0.93141      0.23855  1.0000
  O2          0.07343      0.77086      0.55888  1.0000
  O2          0.75014      0.68413      0.40009  1.0000
  O3          0.31552      0.11353      0.71994  1.0000
  O1          0.88591      0.20134      0.06374  1.0000
  O2          0.30955      0.24610      0.43525  1.0000
  O1          0.95599      0.69078      0.11079  1.0000
  O3          0.74550      0.07482      0.75818  1.0000
  O1          0.67581      0.80207      0.92019  1.0000
  O2          0.07809      0.33322      0.59415  1.0000
  O3          0.20138      0.90557      0.27808  1.0000
  O1          0.64011      0.58560      0.96967  1.0000
  O2          0.42129      0.03658      0.32545  1.0000
  O2          0.95534      0.41691      0.64745  1.0000
  O2          0.40108      0.45035      0.49064  1.0000
  O3          0.52637      0.96864      0.81672  1.0000
  O1          0.01501      0.54051      0.16690  1.0000
  O2          0.54174      0.60009      0.34622  1.0000
  O1          0.06050      0.42574      0.01763  1.0000
  O2          0.39710      0.98109      0.67242  1.0000
  O1          0.45667      0.45498      0.82515  1.0000
  O2          0.96196      0.56691      0.50261  1.0000
  O2          0.56978      0.03591      0.18296  1.0000
  O2          0.56207      0.16928      0.25471  1.0000
  O2          0.82594      0.42867      0.57376  1.0000
  O1          0.55896      0.38926      0.90376  1.0000
  O2          0.40944      0.85095      0.74073  1.0000
  O1          0.17973      0.60660      0.08751  1.0000
  O2          0.40215      0.58973      0.41899  1.0000
  F           0.40114      0.91333      0.24984  1.0000
  F           0.08243      0.55648      0.57731  1.0000
  F           0.46622      0.57693      0.90613  1.0000
  F           0.53586      0.12948      0.75146  1.0000
  F           0.90576      0.42646      0.08439  1.0000
  F           0.53138      0.46226      0.41687  1.0000
