data_cif

_audit_creation_method             'generated by GULP'

_symmetry_space_group_name_H-M     'P 1'
_symmetry_Int_Tables_number        1
_symmetry_cell_setting             triclinic

_cell_length_a                       12.0649
_cell_length_b                       12.0916
_cell_length_c                       30.0538
_cell_angle_alpha                   90.9302
_cell_angle_beta                    88.9902
_cell_angle_gamma                  119.4287

loop_
_atom_site_label
_atom_site_fract_x
_atom_site_fract_y
_atom_site_fract_z
_atom_site_occupancy
  Ge          0.69960      0.37570      0.03389  1.0000
  Si          0.66958      0.32706      0.37522  1.0000
  Si          0.69932      0.31893      0.69861  1.0000
  Si          0.30778      0.63224      0.53178  1.0000
  Si          0.39548      0.69506      0.85362  1.0000
  Ge          0.34424      0.69003      0.19796  1.0000
  Ge          0.38650      0.66256      0.30193  1.0000
  Ge          0.35258      0.63895      0.95105  1.0000
  Si          0.32040      0.69811      0.63040  1.0000
  Si          0.63182      0.30354      0.79712  1.0000
  Si          0.69699      0.39720      0.47596  1.0000
  Ge          0.71388      0.32720      0.13425  1.0000
  Ge          0.53108      0.42801      0.96692  1.0000
  Ge          0.59955      0.10329      0.31395  1.0000
  Si          0.91507      0.49876      0.63897  1.0000
  Si          0.47912      0.59387      0.46521  1.0000
  Si          0.43872      0.90264      0.78872  1.0000
  Ge          0.14417      0.53842      0.12230  1.0000
  Ge          0.46075      0.51411      0.36820  1.0000
  Ge          0.13229      0.57203      0.01693  1.0000
  Si          0.50072      0.91442      0.68921  1.0000
  Si          0.59248      0.47514      0.86358  1.0000
  Si          0.90701      0.43942      0.53947  1.0000
  Ge          0.56573      0.12321      0.20959  1.0000
  Si          0.30977      0.40964      0.84873  1.0000
  Ge          0.63695      0.90294      0.19026  1.0000
  Si          0.10905      0.71309      0.52161  1.0000
  Ge          0.74237      0.60625      0.35260  1.0000
  Si          0.42757      0.12121      0.68007  1.0000
  Ge          0.89831      0.28941      0.01145  1.0000
  Si          0.41389      0.31233      0.48265  1.0000
  Ge          0.93007      0.61450      0.14453  1.0000
  Si          0.71261      0.10501      0.80724  1.0000
  Si          0.61720      0.72302      0.97800  1.0000
  Si          0.12280      0.42609      0.64891  1.0000
  Ge          0.31522      0.87227      0.32518  1.0000
  Si          0.24544      0.35348      0.94959  1.0000
  Ge          0.67358      0.89110      0.29439  1.0000
  Si          0.11290      0.77237      0.62077  1.0000
  Si          0.76394      0.67653      0.45487  1.0000
  Si          0.35690      0.10047      0.77860  1.0000
  Ge          0.92386      0.25082      0.11426  1.0000
  Si          0.37896      0.23984      0.38211  1.0000
  Ge          0.92307      0.65364      0.04269  1.0000
  Si          0.77382      0.11213      0.70810  1.0000
  Si          0.67438      0.75793      0.87542  1.0000
  Si          0.10445      0.35774      0.55027  1.0000
  Ge          0.28842      0.90598      0.22562  1.0000
  Si          0.97253      0.11930      0.95640  1.0000
  Ge          0.91675      0.85736      0.30351  1.0000
  Si          0.17977      0.05402      0.63347  1.0000
  Si          0.03549      0.89014      0.47389  1.0000
  Si          0.13772      0.16181      0.79528  1.0000
  Ge          0.88707      0.97675      0.13003  1.0000
  Ge          0.14630      0.95769      0.37413  1.0000
  Ge          0.87843      0.88986      0.02329  1.0000
  Si          0.05599      0.17925      0.69642  1.0000
  Si          0.89024      0.03319      0.85653  1.0000
  Si          0.16468      0.13838      0.53491  1.0000
  Ge          0.01275      0.86621      0.20030  1.0000
  O3          0.95747      0.99950      0.98178  1.0000
  O1          0.04418      0.95449      0.33527  1.0000
  O2          0.10267      0.10044      0.66547  1.0000
  O2          0.07936      0.01298      0.50600  1.0000
  O2          0.01059      0.07247      0.82343  1.0000
  O1          0.98697      0.93885      0.15569  1.0000
  O1          0.36168      0.53564      0.33140  1.0000
  O2          0.45036      0.78939      0.65734  1.0000
  O1          0.25118      0.67282      0.98271  1.0000
  O2          0.66406      0.42199      0.83062  1.0000
  O1          0.60702      0.25322      0.17742  1.0000
  O2          0.77767      0.36489      0.51052  1.0000
  O1          0.56670      0.34099      0.00079  1.0000
  O2          0.78996      0.44813      0.67108  1.0000
  O3          0.70024      0.22867      0.35030  1.0000
  O2          0.42751      0.66586      0.49884  1.0000
  O1          0.27229      0.57848      0.15616  1.0000
  O2          0.36589      0.77118      0.81594  1.0000
  O2          0.11811      0.22816      0.96518  1.0000
  O1          0.79626      0.88544      0.32010  1.0000
  O2          0.11810      0.90187      0.63961  1.0000
  O2          0.88264      0.79842      0.47923  1.0000
  O2          0.22828      0.09801      0.79730  1.0000
  O1          0.93887      0.13412      0.14048  1.0000
  O3          0.27694      0.10563      0.36442  1.0000
  O1          0.93800      0.79140      0.01879  1.0000
  O2          0.90399      0.11783      0.68948  1.0000
  O2          0.80010      0.87970      0.85465  1.0000
  O2          0.10142      0.22909      0.53169  1.0000
  O1          0.16966      0.93208      0.20308  1.0000
  O1          0.94609      0.89008      0.24841  1.0000
  O2          0.16430      0.09162      0.58425  1.0000
  O2          0.94796      0.08230      0.90432  1.0000
  O2          0.09199      0.16587      0.74610  1.0000
  O1          0.89691      0.96390      0.07327  1.0000
  O3          0.07370      0.94509      0.42537  1.0000
  O3          0.88078      0.17130      0.97248  1.0000
  O1          0.86476      0.70061      0.31680  1.0000
  O2          0.33066      0.12296      0.64335  1.0000
  O2          0.10547      0.80841      0.48490  1.0000
  O2          0.21701      0.30709      0.81215  1.0000
  O1          0.73389      0.89193      0.14935  1.0000
  O1          0.20523      0.85819      0.36739  1.0000
  O3          0.71558      0.81396      0.01410  1.0000
  O2          0.12511      0.32948      0.68559  1.0000
  O2          0.80635      0.09914      0.84399  1.0000
  O2          0.31169      0.21890      0.51912  1.0000
  O1          0.93568      0.70623      0.18978  1.0000
  O1          0.36390      0.62374      0.24560  1.0000
  O2          0.36875      0.69191      0.58006  1.0000
  O3          0.33795      0.70724      0.89980  1.0000
  O2          0.69306      0.36684      0.74911  1.0000
  O1          0.63761      0.33897      0.08774  1.0000
  O2          0.70439      0.33967      0.42789  1.0000
  O3          0.36528      0.34033      0.96453  1.0000
  O1          0.69914      0.04224      0.30266  1.0000
  O2          0.98355      0.65364      0.64102  1.0000
  O2          0.63486      0.67951      0.46858  1.0000
  O2          0.34936      0.96881      0.79437  1.0000
  O1          0.03781      0.38622      0.13891  1.0000
  O3          0.35770      0.34713      0.36177  1.0000
  O1          0.06688      0.66860      0.03159  1.0000
  O2          0.65595      0.98332      0.68740  1.0000
  O2          0.67508      0.62937      0.85953  1.0000
  O2          0.97262      0.34986      0.53419  1.0000
  O1          0.40862      0.03060      0.19717  1.0000
  O1          0.74847      0.27256      0.01273  1.0000
  O3          0.74697      0.46388      0.35305  1.0000
  O2          0.55980      0.25506      0.67525  1.0000
  O2          0.23805      0.70609      0.51112  1.0000
  O2          0.32365      0.54601      0.83664  1.0000
  O1          0.48782      0.79410      0.17328  1.0000
  O1          0.28716      0.71979      0.32030  1.0000
  O3          0.49297      0.73618      0.98252  1.0000
  O2          0.25603      0.55887      0.65382  1.0000
  O2          0.70555      0.23386      0.81789  1.0000
  O2          0.55114      0.32617      0.49420  1.0000
  O1          0.81339      0.46807      0.16089  1.0000
  O1          0.78950      0.53265      0.01816  1.0000
  O2          0.51657      0.25665      0.36653  1.0000
  O2          0.77344      0.23809      0.69129  1.0000
  O2          0.22684      0.47791      0.52853  1.0000
  O2          0.55010      0.75549      0.85560  1.0000
  O1          0.24692      0.75465      0.20625  1.0000
  O1          0.53513      0.78187      0.31823  1.0000
  O3          0.24417      0.47398      0.97067  1.0000
  O2          0.23867      0.77133      0.63766  1.0000
  O2          0.47720      0.22296      0.80026  1.0000
  O2          0.75482      0.54840      0.47447  1.0000
  O1          0.77262      0.22440      0.12492  1.0000
  O2          0.23691      0.35465      0.89506  1.0000
  O1          0.67800      0.85789      0.23850  1.0000
  O2          0.10982      0.78532      0.56751  1.0000
  O3          0.79849      0.69214      0.40330  1.0000
  O2          0.34753      0.10859      0.72537  1.0000
  O1          0.94537      0.24248      0.05781  1.0000
  O2          0.36298      0.23794      0.43641  1.0000
  O1          0.89125      0.67084      0.09830  1.0000
  O2          0.78581      0.10761      0.76134  1.0000
  O2          0.68585      0.77240      0.92872  1.0000
  O2          0.11223      0.34786      0.60347  1.0000
  O1          0.25087      0.91206      0.28134  1.0000
  O3          0.58725      0.57974      0.98810  1.0000
  O1          0.46349      0.99286      0.34076  1.0000
  O2          0.00176      0.44490      0.66034  1.0000
  O2          0.42540      0.45035      0.48472  1.0000
  O2          0.57491      0.98041      0.81341  1.0000
  O1          0.07963      0.63398      0.13491  1.0000
  O1          0.60370      0.59314      0.33486  1.0000
  O1          0.00804      0.43669      0.99341  1.0000
  O2          0.44736      0.00142      0.66785  1.0000
  O2          0.44844      0.42102      0.84625  1.0000
  O2          0.98373      0.57582      0.51487  1.0000
  O1          0.65787      0.05342      0.19572  1.0000
  O1          0.58098      0.16672      0.26578  1.0000
  O2          0.85900      0.44308      0.58988  1.0000
  O3          0.59389      0.43315      0.91316  1.0000
  O2          0.44397      0.85831      0.73803  1.0000
  O1          0.18340      0.54141      0.06701  1.0000
  O3          0.43316      0.59169      0.41624  1.0000
  F           0.44782      0.89473      0.25547  1.0000
  F           0.11384      0.56712      0.58452  1.0000
  F           0.43777      0.57126      0.92009  1.0000
  F           0.56857      0.11384      0.74375  1.0000
  F           0.88633      0.44321      0.07599  1.0000
  F           0.56332      0.47936      0.40659  1.0000
