data_cif

_audit_creation_method             'generated by GULP'

_symmetry_space_group_name_H-M     'P 1'
_symmetry_Int_Tables_number        1
_symmetry_cell_setting             triclinic

_cell_length_a                       12.1209
_cell_length_b                       12.1277
_cell_length_c                       30.0658
_cell_angle_alpha                   91.4357
_cell_angle_beta                    88.7135
_cell_angle_gamma                  119.8733

loop_
_atom_site_label
_atom_site_fract_x
_atom_site_fract_y
_atom_site_fract_z
_atom_site_occupancy
  Ge          0.69960      0.37570      0.03389  1.0000
  Ge          0.65374      0.31564      0.38223  1.0000
  Si          0.70461      0.28916      0.70653  1.0000
  Si          0.31340      0.59990      0.54103  1.0000
  Si          0.40740      0.67164      0.86108  1.0000
  Ge          0.33238      0.68458      0.20304  1.0000
  Ge          0.37239      0.65953      0.30259  1.0000
  Si          0.34435      0.63046      0.95920  1.0000
  Si          0.32479      0.66794      0.63947  1.0000
  Si          0.64179      0.28325      0.80525  1.0000
  Si          0.70509      0.36243      0.48142  1.0000
  Ge          0.69721      0.31950      0.13453  1.0000
  Si          0.53341      0.41602      0.96718  1.0000
  Ge          0.57982      0.09956      0.31442  1.0000
  Si          0.91985      0.46710      0.64634  1.0000
  Si          0.48697      0.56179      0.47448  1.0000
  Si          0.44455      0.88094      0.79951  1.0000
  Ge          0.12956      0.53375      0.12991  1.0000
  Ge          0.43483      0.50646      0.37141  1.0000
  Ge          0.12951      0.57816      0.02531  1.0000
  Si          0.50285      0.88530      0.69965  1.0000
  Si          0.59873      0.45982      0.86716  1.0000
  Si          0.91297      0.40621      0.54652  1.0000
  Ge          0.54602      0.11366      0.20911  1.0000
  Si          0.32502      0.39410      0.84967  1.0000
  Ge          0.61364      0.89133      0.18628  1.0000
  Si          0.11700      0.68013      0.52949  1.0000
  Ge          0.73179      0.58496      0.35787  1.0000
  Si          0.43206      0.09164      0.68935  1.0000
  Ge          0.89804      0.29236      0.01139  1.0000
  Si          0.41908      0.27641      0.48795  1.0000
  Ge          0.90832      0.60568      0.14633  1.0000
  Si          0.72110      0.08523      0.81591  1.0000
  Si          0.61519      0.69977      0.97735  1.0000
  Si          0.12619      0.39430      0.65686  1.0000
  Ge          0.28993      0.86373      0.32053  1.0000
  Si          0.26071      0.34838      0.94825  1.0000
  Ge          0.65597      0.88671      0.28838  1.0000
  Si          0.11864      0.74175      0.62852  1.0000
  Si          0.77118      0.64288      0.46186  1.0000
  Si          0.36490      0.07863      0.78799  1.0000
  Ge          0.91276      0.24929      0.11194  1.0000
  Ge          0.36494      0.21839      0.38577  1.0000
  Ge          0.92027      0.65933      0.04276  1.0000
  Si          0.77762      0.08355      0.71660  1.0000
  Si          0.68216      0.73979      0.87846  1.0000
  Si          0.10938      0.32492      0.55802  1.0000
  Ge          0.25576      0.89306      0.21729  1.0000
  Si          0.98256      0.12523      0.96082  1.0000
  Ge          0.89265      0.84551      0.30893  1.0000
  Si          0.18536      0.02394      0.64155  1.0000
  Si          0.04555      0.85834      0.48254  1.0000
  Si          0.14731      0.14160      0.80167  1.0000
  Ge          0.86525      0.97122      0.13086  1.0000
  Ge          0.11950      0.93807      0.37924  1.0000
  Ge          0.86754      0.88278      0.02543  1.0000
  Si          0.05788      0.14686      0.70361  1.0000
  Si          0.89921      0.01494      0.86364  1.0000
  Si          0.17272      0.10788      0.54311  1.0000
  Ge          0.98163      0.85618      0.20327  1.0000
  O3          0.95362      0.02424      0.99884  1.0000
  O1          0.98702      0.91716      0.35443  1.0000
  O2          0.10375      0.06845      0.67194  1.0000
  O2          0.08439      0.97784      0.51618  1.0000
  O2          0.02367      0.06123      0.83249  1.0000
  O1          0.93508      0.94479      0.17556  1.0000
  O1          0.34146      0.53872      0.33893  1.0000
  O2          0.45191      0.75876      0.66786  1.0000
  O3          0.26059      0.66857      0.99067  1.0000
  O2          0.67546      0.40384      0.83808  1.0000
  O1          0.58646      0.24248      0.17631  1.0000
  O2          0.78298      0.33319      0.51795  1.0000
  O3          0.56750      0.33815      0.99968  1.0000
  O2          0.79476      0.41695      0.67809  1.0000
  O1          0.68402      0.21058      0.35037  1.0000
  O2          0.43487      0.63126      0.50861  1.0000
  O1          0.24823      0.56110      0.16439  1.0000
  O2          0.37071      0.75332      0.82855  1.0000
  O2          0.13293      0.22659      0.96643  1.0000
  O1          0.78633      0.89626      0.31410  1.0000
  O2          0.12289      0.87126      0.64678  1.0000
  O2          0.89184      0.76567      0.48488  1.0000
  O2          0.23721      0.07850      0.80620  1.0000
  O1          0.93254      0.13102      0.13416  1.0000
  O1          0.23174      0.09001      0.36572  1.0000
  O1          0.93079      0.78819      0.01520  1.0000
  O2          0.90588      0.08624      0.69742  1.0000
  O2          0.80982      0.86194      0.85832  1.0000
  O2          0.10786      0.19659      0.53962  1.0000
  O1          0.13799      0.90778      0.19181  1.0000
  O1          0.97297      0.88180      0.25982  1.0000
  O2          0.17680      0.06548      0.59242  1.0000
  O2          0.95017      0.05172      0.91340  1.0000
  O2          0.09417      0.12998      0.75259  1.0000
  O1          0.88873      0.91339      0.08184  1.0000
  O3          0.09384      0.92179      0.43593  1.0000
  O3          0.90124      0.19334      0.96788  1.0000
  O1          0.82513      0.68439      0.31685  1.0000
  O2          0.33483      0.09247      0.65293  1.0000
  O2          0.11274      0.77483      0.49299  1.0000
  O2          0.22939      0.29153      0.81310  1.0000
  O1          0.70520      0.89874      0.14073  1.0000
  O1          0.17588      0.84214      0.36085  1.0000
  O3          0.70575      0.80039      0.01436  1.0000
  O2          0.12718      0.29760      0.69323  1.0000
  O2          0.81671      0.08229      0.85237  1.0000
  O2          0.31844      0.18869      0.52610  1.0000
  O1          0.89686      0.69867      0.18897  1.0000
  O1          0.33613      0.60101      0.24885  1.0000
  O2          0.37522      0.66250      0.58907  1.0000
  O2          0.34697      0.68065      0.90915  1.0000
  O2          0.70030      0.34193      0.75648  1.0000
  O1          0.62999      0.29237      0.08225  1.0000
  O3          0.71276      0.30205      0.43467  1.0000
  O2          0.37812      0.33856      0.96805  1.0000
  O1          0.66952      0.03064      0.29597  1.0000
  O2          0.98855      0.62218      0.64794  1.0000
  O2          0.64145      0.64039      0.47837  1.0000
  O2          0.35581      0.94715      0.80392  1.0000
  O1          0.06249      0.37505      0.11604  1.0000
  O1          0.34546      0.34410      0.37334  1.0000
  O1          0.03457      0.64240      0.01484  1.0000
  O2          0.65788      0.95393      0.69661  1.0000
  O2          0.68796      0.61372      0.86247  1.0000
  O2          0.97887      0.31720      0.54097  1.0000
  O1          0.38952      0.01468      0.19481  1.0000
  O1          0.77357      0.31383      0.99953  1.0000
  O1          0.74931      0.45461      0.35230  1.0000
  O2          0.56544      0.22426      0.68294  1.0000
  O2          0.24630      0.67352      0.51885  1.0000
  O2          0.33293      0.52863      0.83911  1.0000
  O1          0.46956      0.76728      0.17153  1.0000
  O1          0.27136      0.71413      0.31923  1.0000
  O2          0.48368      0.70334      0.98216  1.0000
  O2          0.25961      0.52760      0.66179  1.0000
  O2          0.71719      0.21583      0.82540  1.0000
  O2          0.55757      0.29478      0.49950  1.0000
  O1          0.75698      0.47763      0.14753  1.0000
  O1          0.76756      0.53847      0.03533  1.0000
  O1          0.49161      0.21480      0.36216  1.0000
  O2          0.77963      0.20964      0.69925  1.0000
  O2          0.23401      0.44522      0.53689  1.0000
  O2          0.56210      0.74310      0.85751  1.0000
  O1          0.22868      0.74496      0.20142  1.0000
  O1          0.53015      0.76078      0.31444  1.0000
  O2          0.26161      0.47593      0.96585  1.0000
  O2          0.24263      0.74007      0.64600  1.0000
  O2          0.48748      0.20030      0.80918  1.0000
  O2          0.76786      0.51599      0.47838  1.0000
  O1          0.79672      0.25856      0.14269  1.0000
  O2          0.24840      0.32858      0.89484  1.0000
  O1          0.66987      0.85417      0.23288  1.0000
  O2          0.11793      0.75367      0.57518  1.0000
  O3          0.79164      0.66276      0.40948  1.0000
  O2          0.35467      0.08417      0.73475  1.0000
  O1          0.86736      0.19983      0.05782  1.0000
  O3          0.36247      0.19626      0.44358  1.0000
  O1          0.94834      0.69548      0.09897  1.0000
  O2          0.79152      0.08263      0.76981  1.0000
  O2          0.69634      0.76332      0.93180  1.0000
  O2          0.11456      0.31561      0.61121  1.0000
  O1          0.23944      0.90566      0.27425  1.0000
  O2          0.59509      0.56090      0.98734  1.0000
  O1          0.43947      0.97632      0.33646  1.0000
  O2          0.00691      0.41524      0.66769  1.0000
  O2          0.42888      0.41420      0.48730  1.0000
  O2          0.58203      0.96308      0.82308  1.0000
  O1          0.01654      0.55967      0.15726  1.0000
  O1          0.58151      0.55996      0.34710  1.0000
  O1          0.04919      0.42052      0.01064  1.0000
  O2          0.44754      0.96902      0.67781  1.0000
  O2          0.46181      0.40288      0.84313  1.0000
  O2          0.99149      0.54265      0.52210  1.0000
  O1          0.63102      0.04051      0.19301  1.0000
  O1          0.55419      0.15460      0.26474  1.0000
  O2          0.86615      0.41048      0.59701  1.0000
  O2          0.59110      0.41333      0.91762  1.0000
  O2          0.44850      0.83253      0.74896  1.0000
  O1          0.17897      0.61248      0.07968  1.0000
  O3          0.44955      0.57273      0.42500  1.0000
  F           0.43373      0.84760      0.24971  1.0000
  F           0.12270      0.53671      0.59091  1.0000
  F           0.46674      0.55058      0.91272  1.0000
  F           0.57572      0.08916      0.75123  1.0000
  F           0.88296      0.43281      0.07480  1.0000
  F           0.58128      0.40642      0.41258  1.0000
