data_cif

_audit_creation_method             'generated by GULP'

_symmetry_space_group_name_H-M     'P 1'
_symmetry_Int_Tables_number        1
_symmetry_cell_setting             triclinic

_cell_length_a                       12.1260
_cell_length_b                       12.1228
_cell_length_c                       30.1123
_cell_angle_alpha                   88.8150
_cell_angle_beta                    91.1632
_cell_angle_gamma                  119.6584

loop_
_atom_site_label
_atom_site_fract_x
_atom_site_fract_y
_atom_site_fract_z
_atom_site_occupancy
  Si          0.69960      0.37570      0.03389  1.0000
  Si          0.61242      0.31127      0.35624  1.0000
  Ge          0.65969      0.30798      0.70311  1.0000
  Ge          0.31267      0.64044      0.53651  1.0000
  Si          0.34539      0.66801      0.88096  1.0000
  Si          0.30932      0.69037      0.19990  1.0000
  Si          0.37699      0.70349      0.29821  1.0000
  Si          0.31030      0.60946      0.97951  1.0000
  Ge          0.29346      0.68474      0.63719  1.0000
  Ge          0.60124      0.31796      0.80355  1.0000
  Ge          0.65959      0.36117      0.45521  1.0000
  Si          0.68903      0.31065      0.13237  1.0000
  Si          0.52377      0.41893      0.97182  1.0000
  Si          0.56933      0.10334      0.29147  1.0000
  Ge          0.85917      0.46476      0.62712  1.0000
  Ge          0.46850      0.57996      0.46796  1.0000
  Ge          0.40246      0.88259      0.81565  1.0000
  Si          0.09259      0.51124      0.14038  1.0000
  Si          0.41396      0.52973      0.36491  1.0000
  Si          0.10007      0.57125      0.04078  1.0000
  Ge          0.45238      0.88087      0.71135  1.0000
  Si          0.55958      0.47983      0.87202  1.0000
  Ge          0.87547      0.43312      0.52221  1.0000
  Si          0.50895      0.09486      0.19186  1.0000
  Si          0.27659      0.39722      0.86369  1.0000
  Si          0.58196      0.88845      0.18202  1.0000
  Ge          0.10954      0.72131      0.51725  1.0000
  Si          0.69883      0.59703      0.35066  1.0000
  Ge          0.37270      0.09406      0.69120  1.0000
  Si          0.89763      0.29597      0.02353  1.0000
  Ge          0.39099      0.28315      0.48019  1.0000
  Si          0.88583      0.58244      0.15023  1.0000
  Ge          0.68073      0.11694      0.82796  1.0000
  Si          0.58892      0.69358      0.98827  1.0000
  Ge          0.08155      0.40062      0.65052  1.0000
  Si          0.29610      0.90018      0.30900  1.0000
  Si          0.24354      0.33508      0.96282  1.0000
  Si          0.65125      0.90686      0.28059  1.0000
  Ge          0.07872      0.75296      0.61974  1.0000
  Ge          0.75639      0.64965      0.45268  1.0000
  Ge          0.31851      0.08854      0.79407  1.0000
  Si          0.89528      0.23747      0.12268  1.0000
  Si          0.33237      0.24538      0.37647  1.0000
  Si          0.90229      0.65126      0.05180  1.0000
  Ge          0.73309      0.09656      0.72937  1.0000
  Si          0.62815      0.75305      0.88917  1.0000
  Ge          0.08802      0.35786      0.54893  1.0000
  Si          0.23507      0.89663      0.21009  1.0000
  Si          0.97077      0.11863      0.97662  1.0000
  Si          0.86841      0.84369      0.29584  1.0000
  Ge          0.12312      0.02873      0.63478  1.0000
  Ge          0.03677      0.89376      0.45929  1.0000
  Ge          0.10091      0.14955      0.81187  1.0000
  Si          0.83003      0.95654      0.13563  1.0000
  Si          0.11731      0.97168      0.35618  1.0000
  Si          0.83973      0.86919      0.03764  1.0000
  Ge          0.01432      0.15331      0.70754  1.0000
  Ge          0.85422      0.03531      0.87813  1.0000
  Ge          0.13147      0.12097      0.52954  1.0000
  Si          0.95286      0.82920      0.19761  1.0000
  O2          0.92176      0.99329      0.00756  1.0000
  O2          0.99750      0.93202      0.32284  1.0000
  O1          0.04331      0.08617      0.66256  1.0000
  O1          0.05830      0.02568      0.48467  1.0000
  O1          0.95812      0.06239      0.83574  1.0000
  O2          0.90774      0.91012      0.16722  1.0000
  O2          0.34537      0.58306      0.33099  1.0000
  O1          0.41472      0.75923      0.67625  1.0000
  O2          0.22905      0.64615      0.01235  1.0000
  O3          0.63564      0.44727      0.83748  1.0000
  O2          0.56009      0.21991      0.16007  1.0000
  O1          0.76496      0.33003      0.48626  1.0000
  O2          0.58053      0.34314      0.00071  1.0000
  O1          0.72999      0.41786      0.66074  1.0000
  O2          0.64180      0.23377      0.31949  1.0000
  O1          0.43658      0.67214      0.50119  1.0000
  O2          0.21836      0.56235      0.17220  1.0000
  O3          0.30703      0.75243      0.85002  1.0000
  O2          0.12304      0.20866      0.98396  1.0000
  O2          0.77967      0.90886      0.29886  1.0000
  O1          0.06419      0.87144      0.64565  1.0000
  O1          0.88429      0.78274      0.47237  1.0000
  O1          0.19443      0.08427      0.82249  1.0000
  O2          0.89098      0.10843      0.14168  1.0000
  O2          0.20947      0.12519      0.35367  1.0000
  O2          0.90283      0.77899      0.03359  1.0000
  O1          0.85470      0.07660      0.70931  1.0000
  O3          0.74868      0.87490      0.86997  1.0000
  O1          0.07967      0.22656      0.52442  1.0000
  O2          0.10520      0.89135      0.19188  1.0000
  O2          0.91223      0.83895      0.24675  1.0000
  O1          0.09786      0.04115      0.57866  1.0000
  O3          0.94012      0.06829      0.92727  1.0000
  O1          0.08791      0.14201      0.75469  1.0000
  O2          0.84674      0.91967      0.08673  1.0000
  O3          0.05442      0.92336      0.40280  1.0000
  O2          0.90167      0.20084      0.98698  1.0000
  O2          0.78694      0.69841      0.31281  1.0000
  O1          0.28153      0.10555      0.64851  1.0000
  O1          0.13144      0.83558      0.47695  1.0000
  O3          0.17626      0.30812      0.82705  1.0000
  O2          0.67940      0.88760      0.14578  1.0000
  O2          0.20133      0.90494      0.34541  1.0000
  O2          0.69138      0.78900      0.02445  1.0000
  O1          0.07442      0.31121      0.69650  1.0000
  O1          0.77994      0.12004      0.87236  1.0000
  O1          0.29213      0.18893      0.52112  1.0000
  O2          0.88445      0.67967      0.18654  1.0000
  O2          0.31520      0.64120      0.25032  1.0000
  O1          0.36978      0.67563      0.59037  1.0000
  O2          0.29848      0.66702      0.93136  1.0000
  O1          0.68603      0.37738      0.75515  1.0000
  O2          0.63879      0.31641      0.08230  1.0000
  O3          0.67294      0.30272      0.40261  1.0000
  O2          0.37059      0.33006      0.97757  1.0000
  O2          0.65847      0.03751      0.29716  1.0000
  O1          0.95584      0.62069      0.64229  1.0000
  O1          0.63057      0.66893      0.46543  1.0000
  O1          0.33815      0.97904      0.82396  1.0000
  O2          0.02393      0.35638      0.14309  1.0000
  O2          0.33524      0.37567      0.36052  1.0000
  O2          0.03414      0.66029      0.03615  1.0000
  O1          0.61151      0.94509      0.72170  1.0000
  O2          0.63639      0.63353      0.87031  1.0000
  O1          0.94368      0.34229      0.54011  1.0000
  O2          0.35404      0.02615      0.19021  1.0000
  O2          0.76749      0.30047      0.01370  1.0000
  O2          0.67988      0.45877      0.33840  1.0000
  O1          0.50105      0.24454      0.69132  1.0000
  O1          0.25987      0.74157      0.51854  1.0000
  O2          0.27257      0.52849      0.85862  1.0000
  O2          0.44930      0.75507      0.17725  1.0000
  O2          0.30314      0.77132      0.31987  1.0000
  O2          0.45434      0.68464      0.99988  1.0000
  O1          0.20064      0.54585      0.66605  1.0000
  O1          0.65808      0.24144      0.83840  1.0000
  O1          0.52115      0.26513      0.48524  1.0000
  O2          0.75323      0.44936      0.15606  1.0000
  O2          0.78164      0.52968      0.03020  1.0000
  O2          0.45903      0.24874      0.35941  1.0000
  O1          0.72672      0.21281      0.69753  1.0000
  O1          0.21452      0.48357      0.52331  1.0000
  O2          0.49888      0.74999      0.87250  1.0000
  O2          0.23688      0.77224      0.19302  1.0000
  O2          0.53130      0.78307      0.30203  1.0000
  O2          0.24136      0.45560      0.98378  1.0000
  O1          0.22823      0.78353      0.63569  1.0000
  O1          0.44012      0.24272      0.79660  1.0000
  O1          0.75946      0.52238      0.47579  1.0000
  O2          0.76888      0.23596      0.13961  1.0000
  O2          0.21547      0.31889      0.90978  1.0000
  O2          0.66054      0.90050      0.22750  1.0000
  O1          0.06665      0.77292      0.56323  1.0000
  O3          0.77880      0.65201      0.39490  1.0000
  O1          0.28236      0.05071      0.73865  1.0000
  O2          0.89872      0.22490      0.06953  1.0000
  O3          0.31292      0.22438      0.42878  1.0000
  O2          0.89479      0.66040      0.10493  1.0000
  O1          0.77913      0.13888      0.78366  1.0000
  O2          0.65033      0.76991      0.94266  1.0000
  O1          0.12221      0.34657      0.60441  1.0000
  O2          0.22315      0.89876      0.26331  1.0000
  O2          0.58210      0.55757      0.99437  1.0000
  O2          0.43318      0.02530      0.31603  1.0000
  O1          0.93131      0.37876      0.64275  1.0000
  O1          0.41584      0.43281      0.49161  1.0000
  O1          0.55758      0.96356      0.83253  1.0000
  O2          0.00755      0.56576      0.16194  1.0000
  O2          0.56136      0.58791      0.35182  1.0000
  O2          0.01972      0.43480      0.01663  1.0000
  O1          0.42292      0.98814      0.68172  1.0000
  O2          0.41400      0.41357      0.85284  1.0000
  O1          0.99712      0.57371      0.50013  1.0000
  O2          0.56112      0.00758      0.17069  1.0000
  O2          0.56489      0.14913      0.24097  1.0000
  O1          0.81838      0.45782      0.57186  1.0000
  O2          0.56737      0.42298      0.92100  1.0000
  O1          0.37477      0.83030      0.76157  1.0000
  O2          0.14669      0.56605      0.09127  1.0000
  O3          0.40252      0.56607      0.41444  1.0000
  F           0.43989      0.89339      0.24732  1.0000
  F           0.11823      0.57770      0.58528  1.0000
  F           0.42992      0.54718      0.92608  1.0000
  F           0.55206      0.11327      0.76405  1.0000
  F           0.89105      0.44016      0.08777  1.0000
  F           0.56860      0.43375      0.42546  1.0000
