data_cif

_audit_creation_method             'generated by GULP'

_symmetry_space_group_name_H-M     'P 1'
_symmetry_Int_Tables_number        1
_symmetry_cell_setting             triclinic

_cell_length_a                       12.1119
_cell_length_b                       12.0668
_cell_length_c                       30.0986
_cell_angle_alpha                   88.4398
_cell_angle_beta                    92.0237
_cell_angle_gamma                  119.3017

loop_
_atom_site_label
_atom_site_fract_x
_atom_site_fract_y
_atom_site_fract_z
_atom_site_occupancy
  Si          0.69960      0.37570      0.03389  1.0000
  Si          0.61366      0.30872      0.35744  1.0000
  Ge          0.67111      0.30701      0.70369  1.0000
  Ge          0.31433      0.62264      0.54071  1.0000
  Ge          0.34697      0.65296      0.88435  1.0000
  Si          0.30537      0.68436      0.20278  1.0000
  Si          0.37940      0.70297      0.30095  1.0000
  Si          0.30273      0.61365      0.98162  1.0000
  Ge          0.30336      0.67460      0.64106  1.0000
  Ge          0.61633      0.31937      0.80417  1.0000
  Ge          0.65956      0.35584      0.45609  1.0000
  Si          0.68101      0.30446      0.13214  1.0000
  Si          0.52534      0.42096      0.96903  1.0000
  Si          0.56897      0.10360      0.29113  1.0000
  Ge          0.86904      0.45779      0.62804  1.0000
  Ge          0.47526      0.57300      0.47144  1.0000
  Ge          0.42253      0.87599      0.82096  1.0000
  Si          0.08551      0.50233      0.14489  1.0000
  Si          0.41865      0.52965      0.36826  1.0000
  Si          0.09703      0.56700      0.04561  1.0000
  Ge          0.45816      0.87749      0.71577  1.0000
  Si          0.55937      0.48013      0.86782  1.0000
  Ge          0.87691      0.42309      0.52263  1.0000
  Si          0.50203      0.08905      0.19150  1.0000
  Si          0.26800      0.38916      0.85773  1.0000
  Si          0.57475      0.88127      0.18323  1.0000
  Ge          0.11334      0.70610      0.51727  1.0000
  Si          0.70254      0.59628      0.35365  1.0000
  Ge          0.38136      0.09271      0.69467  1.0000
  Si          0.89713      0.29397      0.02498  1.0000
  Si          0.39612      0.27848      0.48211  1.0000
  Si          0.87852      0.57531      0.15250  1.0000
  Ge          0.69680      0.12177      0.82937  1.0000
  Si          0.58859      0.70179      0.98460  1.0000
  Ge          0.08720      0.38856      0.65237  1.0000
  Si          0.29763      0.90092      0.30987  1.0000
  Si          0.24208      0.33562      0.96025  1.0000
  Si          0.65147      0.90565      0.28159  1.0000
  Ge          0.08845      0.74540      0.61931  1.0000
  Ge          0.76287      0.64513      0.45582  1.0000
  Ge          0.34304      0.08660      0.79712  1.0000
  Si          0.88821      0.23036      0.12416  1.0000
  Si          0.33654      0.24549      0.37933  1.0000
  Si          0.90003      0.64918      0.05427  1.0000
  Ge          0.74274      0.09621      0.72880  1.0000
  Si          0.63262      0.76172      0.88364  1.0000
  Ge          0.08950      0.34918      0.55135  1.0000
  Si          0.23044      0.89144      0.21091  1.0000
  Si          0.97260      0.11778      0.97815  1.0000
  Si          0.86975      0.84262      0.29801  1.0000
  Ge          0.13250      0.02208      0.63415  1.0000
  Ge          0.04353      0.88514      0.46078  1.0000
  Ge          0.11132      0.12881      0.81014  1.0000
  Si          0.82020      0.94767      0.13704  1.0000
  Si          0.11949      0.97046      0.35848  1.0000
  Si          0.83908      0.86944      0.03855  1.0000
  Ge          0.01712      0.13607      0.70628  1.0000
  Ge          0.87126      0.03499      0.87752  1.0000
  Ge          0.14047      0.11799      0.52908  1.0000
  Si          0.94722      0.82232      0.19964  1.0000
  O2          0.92951      0.99840      0.01214  1.0000
  O2          0.00026      0.93392      0.32430  1.0000
  O1          0.04026      0.06795      0.66053  1.0000
  O1          0.07044      0.02108      0.48436  1.0000
  O1          0.97883      0.04803      0.84024  1.0000
  O2          0.89919      0.90147      0.16878  1.0000
  O2          0.34919      0.58447      0.33452  1.0000
  O1          0.41758      0.75023      0.68206  1.0000
  O2          0.22944      0.64164      0.01998  1.0000
  O3          0.64160      0.45263      0.83533  1.0000
  O2          0.55162      0.21288      0.15866  1.0000
  O1          0.76004      0.31878      0.48793  1.0000
  O2          0.58332      0.34725      0.99891  1.0000
  O1          0.74234      0.41744      0.66150  1.0000
  O2          0.64115      0.23433      0.31893  1.0000
  O1          0.44166      0.65826      0.50660  1.0000
  O2          0.21106      0.55257      0.17712  1.0000
  O1          0.31399      0.75525      0.85276  1.0000
  O2          0.12548      0.21103      0.98276  1.0000
  O2          0.78116      0.90892      0.29981  1.0000
  O1          0.07480      0.86358      0.64489  1.0000
  O1          0.89193      0.77806      0.47519  1.0000
  O1          0.21239      0.07548      0.82391  1.0000
  O2          0.88161      0.09979      0.14313  1.0000
  O2          0.21018      0.12466      0.35868  1.0000
  O2          0.90135      0.77780      0.03581  1.0000
  O1          0.85746      0.06856      0.70805  1.0000
  O3          0.76001      0.87768      0.86712  1.0000
  O1          0.07593      0.21181      0.52792  1.0000
  O2          0.09860      0.88383      0.19276  1.0000
  O2          0.91143      0.83456      0.24898  1.0000
  O1          0.12090      0.03416      0.57737  1.0000
  O3          0.93906      0.05767      0.93052  1.0000
  O1          0.07688      0.10509      0.75423  1.0000
  O2          0.83375      0.91009      0.08801  1.0000
  O3          0.05593      0.91325      0.40393  1.0000
  O2          0.90405      0.20122      0.98814  1.0000
  O2          0.78919      0.69837      0.31577  1.0000
  O1          0.28667      0.10314      0.65211  1.0000
  O1          0.13638      0.82241      0.47721  1.0000
  O3          0.17700      0.29030      0.82157  1.0000
  O2          0.67023      0.87881      0.14690  1.0000
  O2          0.20585      0.90741      0.34633  1.0000
  O2          0.69431      0.79444      0.02048  1.0000
  O1          0.08460      0.29613      0.69770  1.0000
  O1          0.80615      0.12914      0.87098  1.0000
  O3          0.30255      0.19232      0.51958  1.0000
  O2          0.87737      0.67186      0.18903  1.0000
  O2          0.31568      0.63824      0.25336  1.0000
  O1          0.37439      0.65678      0.59485  1.0000
  O3          0.28116      0.66772      0.93573  1.0000
  O1          0.65405      0.37834      0.75056  1.0000
  O2          0.63440      0.31269      0.08121  1.0000
  O3          0.67260      0.29411      0.40360  1.0000
  O2          0.37295      0.33604      0.97408  1.0000
  O2          0.65880      0.03770      0.29680  1.0000
  O1          0.97451      0.61133      0.64391  1.0000
  O1          0.63676      0.66321      0.46914  1.0000
  O1          0.32587      0.94111      0.80358  1.0000
  O2          0.01624      0.34715      0.14599  1.0000
  O2          0.33802      0.37548      0.36312  1.0000
  O2          0.03153      0.65707      0.03939  1.0000
  O1          0.61108      0.98345      0.70170  1.0000
  O2          0.63274      0.63366      0.86900  1.0000
  O1          0.94437      0.32881      0.53885  1.0000
  O2          0.34721      0.02018      0.18993  1.0000
  O2          0.76835      0.30145      0.01353  1.0000
  O2          0.68288      0.45771      0.34061  1.0000
  O1          0.52849      0.20570      0.67823  1.0000
  O1          0.26296      0.72472      0.52061  1.0000
  O3          0.25285      0.51205      0.85246  1.0000
  O2          0.44264      0.74721      0.17895  1.0000
  O2          0.30642      0.77272      0.32147  1.0000
  O2          0.45356      0.68856      0.99720  1.0000
  O1          0.20254      0.53581      0.66852  1.0000
  O1          0.71983      0.27373      0.82820  1.0000
  O3          0.51790      0.26079      0.48557  1.0000
  O2          0.74480      0.44313      0.15598  1.0000
  O2          0.77867      0.53004      0.03145  1.0000
  O2          0.46010      0.24728      0.36054  1.0000
  O1          0.77295      0.24724      0.71387  1.0000
  O1          0.22240      0.46592      0.52570  1.0000
  O3          0.51179      0.76697      0.86403  1.0000
  O2          0.23112      0.76527      0.19470  1.0000
  O2          0.53337      0.78371      0.30398  1.0000
  O2          0.24632      0.45969      0.98032  1.0000
  O1          0.24027      0.77322      0.63006  1.0000
  O1          0.46533      0.21915      0.82119  1.0000
  O1          0.76627      0.51649      0.47819  1.0000
  O2          0.76197      0.23035      0.13973  1.0000
  O2          0.21796      0.32222      0.90699  1.0000
  O2          0.65662      0.89523      0.22849  1.0000
  O1          0.06526      0.75364      0.56280  1.0000
  O3          0.78438      0.65250      0.39765  1.0000
  O1          0.33120      0.12842      0.74200  1.0000
  O2          0.89427      0.22004      0.07098  1.0000
  O2          0.32671      0.23073      0.43268  1.0000
  O2          0.89149      0.65646      0.10737  1.0000
  O1          0.75821      0.08162      0.78539  1.0000
  O2          0.64010      0.77537      0.93822  1.0000
  O1          0.12457      0.33118      0.60677  1.0000
  O2          0.22205      0.89708      0.26406  1.0000
  O2          0.57800      0.56304      0.98748  1.0000
  O2          0.43446      0.02610      0.31573  1.0000
  O1          0.93622      0.36474      0.64265  1.0000
  O3          0.42701      0.42170      0.49211  1.0000
  O1          0.55201      0.00430      0.84585  1.0000
  O2          0.99747      0.55409      0.16555  1.0000
  O2          0.56471      0.58710      0.35451  1.0000
  O2          0.02083      0.43217      0.01986  1.0000
  O1          0.36276      0.94262      0.70099  1.0000
  O2          0.41352      0.42147      0.84969  1.0000
  O1          0.00049      0.55963      0.49929  1.0000
  O2          0.55375      0.00080      0.17074  1.0000
  O2          0.56080      0.14673      0.24021  1.0000
  O1          0.82686      0.45247      0.57275  1.0000
  O2          0.56182      0.42422      0.91790  1.0000
  O1          0.45626      0.83291      0.77059  1.0000
  O2          0.14078      0.55992      0.09644  1.0000
  O3          0.40960      0.56611      0.41779  1.0000
  F           0.43745      0.89035      0.24705  1.0000
  F           0.12090      0.54945      0.58260  1.0000
  F           0.41999      0.57453      0.91550  1.0000
  F           0.56222      0.12713      0.76390  1.0000
  F           0.88637      0.43630      0.08810  1.0000
  F           0.58153      0.43591      0.42525  1.0000
