data_cif

_audit_creation_method             'generated by GULP'

_symmetry_space_group_name_H-M     'P 1'
_symmetry_Int_Tables_number        1
_symmetry_cell_setting             triclinic

_cell_length_a                       12.1859
_cell_length_b                       12.0670
_cell_length_c                       30.0091
_cell_angle_alpha                   92.1790
_cell_angle_beta                    90.4030
_cell_angle_gamma                  120.2080

loop_
_atom_site_label
_atom_site_fract_x
_atom_site_fract_y
_atom_site_fract_z
_atom_site_occupancy
  Ge          0.69960      0.37570      0.03389  1.0000
  Si          0.63471      0.34009      0.36854  1.0000
  Si          0.71423      0.33265      0.69182  1.0000
  Si          0.33656      0.64196      0.54052  1.0000
  Ge          0.38921      0.72225      0.87004  1.0000
  Ge          0.34925      0.70718      0.21594  1.0000
  Si          0.39750      0.70774      0.31442  1.0000
  Ge          0.34083      0.66092      0.97048  1.0000
  Si          0.31753      0.69737      0.63908  1.0000
  Ge          0.67201      0.33665      0.79026  1.0000
  Si          0.71215      0.39598      0.46708  1.0000
  Ge          0.68607      0.31416      0.13436  1.0000
  Ge          0.55675      0.44221      0.96000  1.0000
  Si          0.58874      0.12196      0.30182  1.0000
  Si          0.91743      0.48871      0.62637  1.0000
  Si          0.51502      0.60466      0.48060  1.0000
  Si          0.45178      0.94036      0.80703  1.0000
  Ge          0.12636      0.55997      0.14978  1.0000
  Si          0.44379      0.55027      0.38072  1.0000
  Ge          0.13387      0.59780      0.04406  1.0000
  Si          0.49143      0.91786      0.70510  1.0000
  Ge          0.58756      0.47786      0.85402  1.0000
  Si          0.93064      0.43393      0.52661  1.0000
  Si          0.52557      0.10412      0.19985  1.0000
  Ge          0.30762      0.44039      0.84607  1.0000
  Ge          0.61266      0.89555      0.18859  1.0000
  Si          0.13827      0.71394      0.51959  1.0000
  Si          0.71522      0.61927      0.36068  1.0000
  Si          0.42720      0.13424      0.68952  1.0000
  Ge          0.91538      0.30600      0.02131  1.0000
  Si          0.44287      0.32434      0.48778  1.0000
  Ge          0.88725      0.60183      0.15623  1.0000
  Ge          0.74789      0.14724      0.81746  1.0000
  Ge          0.63028      0.73520      0.98052  1.0000
  Si          0.11945      0.41806      0.64714  1.0000
  Si          0.30867      0.90674      0.31668  1.0000
  Ge          0.27037      0.37781      0.94793  1.0000
  Si          0.67471      0.92194      0.29270  1.0000
  Si          0.11542      0.76812      0.61796  1.0000
  Si          0.78629      0.67802      0.45985  1.0000
  Si          0.38455      0.15279      0.79109  1.0000
  Ge          0.91665      0.27005      0.12285  1.0000
  Si          0.36284      0.27040      0.38935  1.0000
  Ge          0.91160      0.66237      0.05359  1.0000
  Si          0.77690      0.11703      0.71325  1.0000
  Ge          0.66577      0.76889      0.87811  1.0000
  Si          0.12901      0.36041      0.54781  1.0000
  Si          0.24711      0.89221      0.21480  1.0000
  Ge          0.00034      0.13402      0.96737  1.0000
  Si          0.89251      0.86835      0.31427  1.0000
  Si          0.17766      0.05015      0.63325  1.0000
  Si          0.07098      0.89187      0.47204  1.0000
  Ge          0.14016      0.17962      0.79419  1.0000
  Ge          0.87867      0.99499      0.14382  1.0000
  Si          0.14319      0.98820      0.37350  1.0000
  Ge          0.88403      0.90542      0.03896  1.0000
  Si          0.04516      0.16698      0.69271  1.0000
  Ge          0.90675      0.03893      0.86279  1.0000
  Si          0.19882      0.14607      0.53467  1.0000
  Ge          0.97343      0.85787      0.21276  1.0000
  O1          0.98067      0.03541      0.00979  1.0000
  O2          0.00881      0.94909      0.35018  1.0000
  O2          0.08399      0.08989      0.65686  1.0000
  O2          0.11771      0.01977      0.50295  1.0000
  O1          0.02249      0.07168      0.82517  1.0000
  O1          0.94960      0.96736      0.18838  1.0000
  O2          0.37017      0.60849      0.35364  1.0000
  O2          0.43330      0.78572      0.67468  1.0000
  O1          0.26318      0.69215      0.01311  1.0000
  O1          0.69744      0.47264      0.82032  1.0000
  O3          0.55776      0.21982      0.16919  1.0000
  O2          0.80616      0.35876      0.49321  1.0000
  O1          0.58904      0.34631      0.99146  1.0000
  O2          0.78578      0.43158      0.65273  1.0000
  O2          0.66258      0.25257      0.33301  1.0000
  O2          0.46650      0.67940      0.51416  1.0000
  O1          0.24021      0.57013      0.18561  1.0000
  O3          0.36309      0.82684      0.83729  1.0000
  O1          0.15880      0.23910      0.97079  1.0000
  O2          0.80154      0.93094      0.31544  1.0000
  O2          0.11436      0.89622      0.63627  1.0000
  O2          0.91900      0.80242      0.47807  1.0000
  O3          0.25881      0.14602      0.80780  1.0000
  O1          0.93292      0.15254      0.14911  1.0000
  O2          0.23311      0.14244      0.37114  1.0000
  O1          0.92885      0.79436      0.02793  1.0000
  O2          0.89218      0.10741      0.68938  1.0000
  O1          0.79250      0.88692      0.85001  1.0000
  O2          0.13637      0.23606      0.52912  1.0000
  O3          0.12653      0.89816      0.19803  1.0000
  O3          0.96220      0.88005      0.26942  1.0000
  O2          0.19010      0.09568      0.58348  1.0000
  O1          0.96143      0.05259      0.91650  1.0000
  O3          0.08986      0.14295      0.73877  1.0000
  O1          0.91296      0.94422      0.09509  1.0000
  O2          0.11104      0.93968      0.42294  1.0000
  O1          0.91759      0.21176      0.97649  1.0000
  O2          0.80568      0.71711      0.32403  1.0000
  O2          0.32067      0.12054      0.65378  1.0000
  O2          0.14027      0.81112      0.48300  1.0000
  O1          0.19428      0.33657      0.80536  1.0000
  O1          0.71574      0.90556      0.14908  1.0000
  O2          0.21635      0.91954      0.35233  1.0000
  O1          0.72785      0.83950      0.02376  1.0000
  O2          0.11286      0.31951      0.68393  1.0000
  O1          0.84902      0.14206      0.85583  1.0000
  O2          0.34865      0.22713      0.52426  1.0000
  O1          0.87402      0.70271      0.19661  1.0000
  O3          0.34009      0.63199      0.26815  1.0000
  O2          0.38308      0.69834      0.59172  1.0000
  O1          0.35184      0.74684      0.92379  1.0000
  O3          0.73494      0.41006      0.73781  1.0000
  O1          0.62454      0.28865      0.08015  1.0000
  O2          0.70041      0.33896      0.41597  1.0000
  O1          0.40502      0.40201      0.97429  1.0000
  O2          0.67299      0.05300      0.30630  1.0000
  O2          0.98328      0.64465      0.63252  1.0000
  O2          0.67028      0.69035      0.48176  1.0000
  O2          0.37982      0.02227      0.80481  1.0000
  O1          0.06138      0.39893      0.13209  1.0000
  O2          0.35373      0.39424      0.37473  1.0000
  O1          0.02371      0.63975      0.02837  1.0000
  O2          0.64390      0.98638      0.69991  1.0000
  O1          0.68207      0.63985      0.87172  1.0000
  O2          0.00036      0.34822      0.52565  1.0000
  O2          0.37160      0.02458      0.20141  1.0000
  O1          0.79327      0.32855      0.00553  1.0000
  O2          0.70734      0.48269      0.34856  1.0000
  O2          0.56265      0.25481      0.67668  1.0000
  O2          0.27262      0.71600      0.51641  1.0000
  O1          0.28592      0.57046      0.84713  1.0000
  O1          0.48272      0.74706      0.18282  1.0000
  O2          0.32378      0.78563      0.32927  1.0000
  O1          0.48488      0.70850      0.99678  1.0000
  O2          0.24833      0.55467      0.65914  1.0000
  O1          0.76679      0.29615      0.82316  1.0000
  O2          0.57518      0.32206      0.49116  1.0000
  O1          0.73741      0.46914      0.15415  1.0000
  O1          0.75957      0.53832      0.04244  1.0000
  O2          0.48034      0.26636      0.36624  1.0000
  O2          0.77190      0.23653      0.69331  1.0000
  O2          0.25569      0.48659      0.53252  1.0000
  O1          0.54198      0.77701      0.85403  1.0000
  O3          0.24371      0.76745      0.19468  1.0000
  O2          0.55139      0.80315      0.31313  1.0000
  O1          0.23867      0.49835      0.96156  1.0000
  O2          0.23729      0.77162      0.64115  1.0000
  O3          0.50621      0.27833      0.81111  1.0000
  O2          0.78676      0.55140      0.47523  1.0000
  O1          0.78402      0.25671      0.14813  1.0000
  O1          0.25191      0.34368      0.89111  1.0000
  O3          0.69062      0.91124      0.24052  1.0000
  O2          0.12430      0.78289      0.56475  1.0000
  O2          0.79247      0.69215      0.40661  1.0000
  O2          0.37972      0.16016      0.73640  1.0000
  O1          0.88207      0.21372      0.06740  1.0000
  O2          0.35885      0.25566      0.44254  1.0000
  O1          0.93146      0.69537      0.11052  1.0000
  O3          0.80643      0.12840      0.76547  1.0000
  O1          0.68374      0.82364      0.93376  1.0000
  O2          0.12266      0.34565      0.60108  1.0000
  O2          0.23598      0.88356      0.26945  1.0000
  O1          0.64992      0.60418      0.97463  1.0000
  O2          0.44711      0.03466      0.31987  1.0000
  O2          0.99493      0.43177      0.65206  1.0000
  O2          0.46440      0.46506      0.50098  1.0000
  O3          0.59417      0.02540      0.82776  1.0000
  O1          0.00083      0.56855      0.17345  1.0000
  O2          0.57737      0.60643      0.35537  1.0000
  O1          0.06591      0.43668      0.02915  1.0000
  O2          0.43665      0.00548      0.68686  1.0000
  O1          0.45349      0.47012      0.82967  1.0000
  O2          0.01893      0.57344      0.50620  1.0000
  O3          0.58074      0.01828      0.17914  1.0000
  O2          0.58479      0.15658      0.25074  1.0000
  O2          0.87403      0.43658      0.57513  1.0000
  O1          0.55819      0.40194      0.90427  1.0000
  O2          0.45708      0.88619      0.75642  1.0000
  O1          0.17501      0.63774      0.09991  1.0000
  O2          0.45421      0.60243      0.43200  1.0000
  F           0.43986      0.86433      0.24611  1.0000
  F           0.13003      0.56873      0.58383  1.0000
  F           0.44926      0.59404      0.91253  1.0000
  F           0.60318      0.17871      0.76053  1.0000
  F           0.87665      0.43686      0.08863  1.0000
  F           0.57785      0.46943      0.42362  1.0000
