data_cif

_audit_creation_method             'generated by GULP'

_symmetry_space_group_name_H-M     'P 1'
_symmetry_Int_Tables_number        1
_symmetry_cell_setting             triclinic

_cell_length_a                       12.0782
_cell_length_b                       12.1575
_cell_length_c                       30.1812
_cell_angle_alpha                   91.1290
_cell_angle_beta                    89.7673
_cell_angle_gamma                  119.4735

loop_
_atom_site_label
_atom_site_fract_x
_atom_site_fract_y
_atom_site_fract_z
_atom_site_occupancy
  Ge          0.69960      0.37570      0.03389  1.0000
  Si          0.64817      0.32197      0.38001  1.0000
  Si          0.68561      0.29987      0.70603  1.0000
  Si          0.29661      0.61724      0.54346  1.0000
  Si          0.38704      0.68561      0.86114  1.0000
  Ge          0.33980      0.68693      0.20320  1.0000
  Ge          0.39435      0.67260      0.30562  1.0000
  Ge          0.35636      0.63276      0.95760  1.0000
  Si          0.30119      0.67756      0.64211  1.0000
  Si          0.62532      0.29145      0.80428  1.0000
  Si          0.68380      0.38273      0.48097  1.0000
  Ge          0.70716      0.31677      0.13425  1.0000
  Si          0.53458      0.42650      0.96885  1.0000
  Ge          0.59951      0.11140      0.31381  1.0000
  Si          0.89721      0.47580      0.64519  1.0000
  Ge          0.46493      0.57393      0.47636  1.0000
  Si          0.43011      0.89453      0.79876  1.0000
  Ge          0.13481      0.52862      0.12813  1.0000
  Ge          0.42742      0.50722      0.37762  1.0000
  Ge          0.14070      0.57142      0.02337  1.0000
  Si          0.48499      0.89705      0.69976  1.0000
  Si          0.58499      0.46675      0.86789  1.0000
  Si          0.89397      0.42013      0.54568  1.0000
  Ge          0.55667      0.11953      0.20923  1.0000
  Si          0.30233      0.40202      0.85427  1.0000
  Ge          0.62540      0.90344      0.18767  1.0000
  Si          0.09570      0.69394      0.53195  1.0000
  Si          0.70999      0.59474      0.36053  1.0000
  Si          0.41131      0.10202      0.68902  1.0000
  Ge          0.89866      0.29655      0.01170  1.0000
  Si          0.39717      0.29246      0.49287  1.0000
  Ge          0.91992      0.60462      0.14563  1.0000
  Si          0.70591      0.09469      0.81654  1.0000
  Si          0.62402      0.71524      0.98167  1.0000
  Si          0.10559      0.40524      0.65657  1.0000
  Ge          0.31499      0.88444      0.32485  1.0000
  Si          0.25142      0.35074      0.95478  1.0000
  Ge          0.66314      0.90198      0.28820  1.0000
  Si          0.09374      0.75050      0.63058  1.0000
  Si          0.75164      0.66257      0.46148  1.0000
  Si          0.34869      0.09067      0.78736  1.0000
  Ge          0.91821      0.24468      0.11244  1.0000
  Ge          0.35501      0.23414      0.39085  1.0000
  Ge          0.93085      0.64944      0.04366  1.0000
  Si          0.75960      0.09415      0.71756  1.0000
  Si          0.66831      0.74801      0.87956  1.0000
  Si          0.09405      0.34073      0.55777  1.0000
  Ge          0.26816      0.90346      0.22279  1.0000
  Ge          0.97664      0.11773      0.96318  1.0000
  Ge          0.88915      0.83978      0.31106  1.0000
  Si          0.16065      0.03161      0.64190  1.0000
  Si          0.03293      0.87456      0.48129  1.0000
  Si          0.12967      0.15185      0.80236  1.0000
  Ge          0.87362      0.96754      0.13489  1.0000
  Ge          0.13072      0.94392      0.37990  1.0000
  Ge          0.88397      0.87763      0.03140  1.0000
  Si          0.04030      0.15971      0.70390  1.0000
  Si          0.88369      0.01865      0.86306  1.0000
  Si          0.15303      0.11896      0.54364  1.0000
  Ge          0.98570      0.84809      0.20722  1.0000
  O1          0.95914      0.01377      0.00299  1.0000
  O1          0.99657      0.91356      0.35352  1.0000
  O2          0.08363      0.07912      0.67293  1.0000
  O2          0.06560      0.99432      0.51401  1.0000
  O2          0.00440      0.06512      0.83051  1.0000
  O1          0.94130      0.94271      0.18104  1.0000
  O1          0.34680      0.54797      0.33879  1.0000
  O2          0.43121      0.76891      0.66962  1.0000
  O1          0.26324      0.67098      0.99155  1.0000
  O2          0.65745      0.41150      0.83728  1.0000
  O1          0.59342      0.24353      0.17471  1.0000
  O2          0.76721      0.34949      0.51437  1.0000
  O3          0.56760      0.34510      0.00032  1.0000
  O2          0.77230      0.42414      0.67671  1.0000
  O3          0.69111      0.24063      0.35027  1.0000
  O3          0.41764      0.65506      0.51349  1.0000
  O1          0.26026      0.56968      0.16387  1.0000
  O2          0.35580      0.76388      0.82527  1.0000
  O3          0.13791      0.22072      0.97067  1.0000
  O1          0.80421      0.91209      0.30992  1.0000
  O2          0.09849      0.88023      0.64869  1.0000
  O2          0.87963      0.78425      0.48065  1.0000
  O2          0.22240      0.09128      0.80602  1.0000
  O1          0.94175      0.12734      0.13340  1.0000
  O1          0.24416      0.09489      0.36754  1.0000
  O1          0.94383      0.78286      0.01799  1.0000
  O2          0.88749      0.09743      0.69867  1.0000
  O2          0.78949      0.86662      0.85678  1.0000
  O2          0.09416      0.21360      0.53942  1.0000
  O1          0.14542      0.90955      0.19713  1.0000
  O1          0.97082      0.84729      0.26357  1.0000
  O2          0.14523      0.06879      0.59280  1.0000
  O3          0.94034      0.04384      0.91151  1.0000
  O2          0.08269      0.15000      0.75297  1.0000
  O1          0.90425      0.90916      0.08745  1.0000
  O3          0.09399      0.93305      0.43574  1.0000
  O1          0.89159      0.19204      0.96946  1.0000
  O3          0.80703      0.67854      0.32348  1.0000
  O2          0.31164      0.10033      0.65250  1.0000
  O2          0.09540      0.78965      0.49568  1.0000
  O2          0.20676      0.29835      0.81818  1.0000
  O1          0.71341      0.90073      0.14263  1.0000
  O1          0.19975      0.85648      0.36476  1.0000
  O3          0.72267      0.80451      0.01845  1.0000
  O2          0.10726      0.30807      0.69260  1.0000
  O2          0.80219      0.08963      0.85326  1.0000
  O2          0.30114      0.19444      0.52986  1.0000
  O1          0.90614      0.69637      0.18739  1.0000
  O1          0.36959      0.62618      0.24952  1.0000
  O2          0.35184      0.67256      0.59285  1.0000
  O3          0.33439      0.70015      0.90758  1.0000
  O2          0.68397      0.35188      0.75624  1.0000
  O1          0.63891      0.33792      0.08681  1.0000
  O2          0.68701      0.32685      0.43208  1.0000
  O2          0.38093      0.35099      0.96865  1.0000
  O1          0.70068      0.05242      0.30666  1.0000
  O2          0.96406      0.63004      0.64881  1.0000
  O3          0.63149      0.67044      0.47911  1.0000
  O2          0.34160      0.96104      0.80417  1.0000
  O1          0.03086      0.37443      0.14085  1.0000
  O1          0.32502      0.34513      0.36981  1.0000
  O1          0.07786      0.66943      0.03852  1.0000
  O2          0.63992      0.96509      0.69757  1.0000
  O2          0.66813      0.61944      0.86387  1.0000
  O2          0.96152      0.33244      0.54091  1.0000
  O1          0.39977      0.01604      0.19664  1.0000
  O1          0.74676      0.27296      0.01230  1.0000
  O2          0.71530      0.46373      0.36127  1.0000
  O2          0.54380      0.23421      0.68363  1.0000
  O2          0.22545      0.68937      0.52281  1.0000
  O2          0.31298      0.53701      0.84351  1.0000
  O1          0.47417      0.78949      0.17437  1.0000
  O1          0.29945      0.73848      0.31900  1.0000
  O3          0.50047      0.72733      0.98836  1.0000
  O2          0.23668      0.53840      0.66449  1.0000
  O2          0.70103      0.22483      0.82601  1.0000
  O2          0.53938      0.31000      0.49929  1.0000
  O1          0.80723      0.45684      0.16128  1.0000
  O1          0.80066      0.52755      0.01792  1.0000
  O3          0.49702      0.24667      0.37228  1.0000
  O2          0.75842      0.21820      0.70010  1.0000
  O2          0.21552      0.46265      0.53749  1.0000
  O2          0.54148      0.74415      0.86149  1.0000
  O1          0.24650      0.75347      0.21593  1.0000
  O1          0.55233      0.77473      0.31711  1.0000
  O3          0.24557      0.46847      0.97583  1.0000
  O2          0.21863      0.74960      0.64905  1.0000
  O2          0.47107      0.21389      0.80812  1.0000
  O2          0.74137      0.53362      0.48031  1.0000
  O1          0.76697      0.21589      0.12444  1.0000
  O2          0.23313      0.34600      0.90055  1.0000
  O1          0.68922      0.87225      0.23342  1.0000
  O2          0.09264      0.76409      0.57765  1.0000
  O2          0.76377      0.67030      0.40819  1.0000
  O2          0.33540      0.09366      0.73429  1.0000
  O1          0.93866      0.23568      0.05625  1.0000
  O3          0.33284      0.21693      0.44799  1.0000
  O1          0.88736      0.65827      0.09805  1.0000
  O2          0.77512      0.09303      0.77069  1.0000
  O2          0.68766      0.76853      0.93271  1.0000
  O2          0.10018      0.33079      0.61086  1.0000
  O1          0.26992      0.93492      0.27862  1.0000
  O2          0.59442      0.57028      0.98844  1.0000
  O1          0.46348      0.00316      0.34080  1.0000
  O2          0.98230      0.42045      0.66674  1.0000
  O3          0.40540      0.42589      0.50066  1.0000
  O2          0.56759      0.97253      0.82357  1.0000
  O1          0.07080      0.62394      0.14233  1.0000
  O3          0.57395      0.57540      0.34840  1.0000
  O1          0.01466      0.44326      0.99698  1.0000
  O2          0.43087      0.98227      0.67782  1.0000
  O2          0.44143      0.41450      0.85003  1.0000
  O2          0.97119      0.55742      0.52305  1.0000
  O1          0.65036      0.05568      0.19360  1.0000
  O1          0.57604      0.16800      0.26446  1.0000
  O2          0.84284      0.42140      0.59552  1.0000
  O2          0.58605      0.42761      0.91853  1.0000
  O2          0.43234      0.84676      0.74870  1.0000
  O1          0.18287      0.53596      0.07404  1.0000
  O1          0.40683      0.58050      0.42587  1.0000
  F           0.49794      0.90085      0.25979  1.0000
  F           0.09776      0.54736      0.59392  1.0000
  F           0.43539      0.56562      0.92430  1.0000
  F           0.55788      0.10057      0.75366  1.0000
  F           0.89302      0.43334      0.07777  1.0000
  F           0.51854      0.45299      0.42127  1.0000
