data_cif

_audit_creation_method             'generated by GULP'

_symmetry_space_group_name_H-M     'P 1'
_symmetry_Int_Tables_number        1
_symmetry_cell_setting             triclinic

_cell_length_a                       12.2386
_cell_length_b                       12.1001
_cell_length_c                       30.2194
_cell_angle_alpha                   89.7399
_cell_angle_beta                    90.1690
_cell_angle_gamma                  120.2129

loop_
_atom_site_label
_atom_site_fract_x
_atom_site_fract_y
_atom_site_fract_z
_atom_site_occupancy
  Ge          0.69960      0.37570      0.03389  1.0000
  Si          0.62564      0.34682      0.36906  1.0000
  Si          0.68952      0.31116      0.68649  1.0000
  Si          0.29912      0.63834      0.52613  1.0000
  Ge          0.37364      0.68609      0.86578  1.0000
  Si          0.33542      0.71229      0.20700  1.0000
  Si          0.39520      0.72775      0.30715  1.0000
  Ge          0.32547      0.62003      0.96767  1.0000
  Si          0.30974      0.69452      0.62561  1.0000
  Si          0.63860      0.31431      0.78745  1.0000
  Si          0.68089      0.40111      0.46749  1.0000
  Ge          0.68376      0.30844      0.13657  1.0000
  Ge          0.52909      0.39153      0.95935  1.0000
  Si          0.59508      0.14290      0.30434  1.0000
  Si          0.90577      0.49051      0.62608  1.0000
  Si          0.47899      0.60384      0.46707  1.0000
  Ge          0.41174      0.88610      0.79032  1.0000
  Ge          0.12006      0.54922      0.14355  1.0000
  Si          0.43118      0.54989      0.36818  1.0000
  Ge          0.13203      0.60254      0.03894  1.0000
  Ge          0.47699      0.90782      0.69169  1.0000
  Ge          0.57181      0.45682      0.85601  1.0000
  Si          0.89690      0.43879      0.52716  1.0000
  Ge          0.52020      0.09408      0.20820  1.0000
  Ge          0.29179      0.39769      0.84832  1.0000
  Si          0.61494      0.91373      0.18828  1.0000
  Si          0.10265      0.71603      0.51298  1.0000
  Si          0.70512      0.62411      0.35415  1.0000
  Ge          0.40492      0.11412      0.66955  1.0000
  Ge          0.92113      0.31191      0.01911  1.0000
  Si          0.40627      0.32398      0.48042  1.0000
  Ge          0.89133      0.60238      0.15495  1.0000
  Ge          0.70689      0.10346      0.80335  1.0000
  Ge          0.60605      0.67965      0.98301  1.0000
  Si          0.10723      0.41527      0.63750  1.0000
  Si          0.31324      0.92614      0.31825  1.0000
  Ge          0.25187      0.33052      0.94925  1.0000
  Si          0.67475      0.94085      0.28923  1.0000
  Si          0.10392      0.76772      0.61166  1.0000
  Si          0.75373      0.68144      0.45269  1.0000
  Ge          0.34728      0.10362      0.77329  1.0000
  Ge          0.91878      0.25776      0.12196  1.0000
  Si          0.34896      0.27181      0.38189  1.0000
  Ge          0.91538      0.65548      0.05446  1.0000
  Si          0.75913      0.09450      0.70220  1.0000
  Ge          0.65704      0.74353      0.88089  1.0000
  Si          0.09305      0.35891      0.53897  1.0000
  Si          0.24531      0.91052      0.21838  1.0000
  Ge          0.96949      0.11769      0.96359  1.0000
  Si          0.88490      0.87307      0.30409  1.0000
  Si          0.15634      0.04714      0.62164  1.0000
  Si          0.03329      0.89537      0.46335  1.0000
  Ge          0.11914      0.16116      0.78847  1.0000
  Ge          0.85852      0.97308      0.13891  1.0000
  Si          0.13061      0.99212      0.36550  1.0000
  Ge          0.84911      0.87323      0.03552  1.0000
  Si          0.03764      0.16523      0.68548  1.0000
  Ge          0.88474      0.03239      0.85797  1.0000
  Si          0.15350      0.14161      0.52453  1.0000
  Si          0.96237      0.84414      0.20682  1.0000
  O1          0.88614      0.97921      0.99212  1.0000
  O2          0.01372      0.95399      0.33209  1.0000
  O2          0.07288      0.08264      0.65302  1.0000
  O2          0.08090      0.02536      0.49040  1.0000
  O1          0.98915      0.05279      0.81703  1.0000
  O3          0.94891      0.92797      0.16855  1.0000
  O2          0.35875      0.60522      0.33789  1.0000
  O3          0.42837      0.77377      0.65538  1.0000
  O1          0.26399      0.67714      0.00620  1.0000
  O3          0.66688      0.43205      0.81794  1.0000
  O1          0.56145      0.21929      0.17025  1.0000
  O2          0.76759      0.36446      0.49781  1.0000
  O1          0.58437      0.31710      0.99341  1.0000
  O2          0.78436      0.43869      0.65887  1.0000
  O2          0.66437      0.26036      0.33918  1.0000
  O2          0.42435      0.67716      0.49624  1.0000
  O3          0.25041      0.58838      0.17855  1.0000
  O1          0.33502      0.77316      0.83136  1.0000
  O1          0.12637      0.20024      0.97569  1.0000
  O2          0.79687      0.93781      0.30975  1.0000
  O2          0.10875      0.89616      0.63042  1.0000
  O2          0.88169      0.80659      0.47063  1.0000
  O1          0.22932      0.11601      0.79822  1.0000
  O1          0.91892      0.13193      0.14852  1.0000
  O2          0.22246      0.14603      0.36314  1.0000
  O1          0.93224      0.79919      0.03212  1.0000
  O2          0.88707      0.10816      0.68120  1.0000
  O1          0.78462      0.87138      0.85702  1.0000
  O2          0.09343      0.23366      0.51925  1.0000
  O2          0.10971      0.88606      0.20333  1.0000
  O2          0.92691      0.88153      0.25356  1.0000
  O2          0.12920      0.07533      0.57206  1.0000
  O1          0.95423      0.08111      0.90820  1.0000
  O3          0.08006      0.14839      0.73315  1.0000
  O1          0.86886      0.95786      0.08340  1.0000
  O2          0.06844      0.93918      0.41277  1.0000
  O1          0.91049      0.21645      0.97552  1.0000
  O2          0.80426      0.72386      0.31782  1.0000
  O3          0.30392      0.12709      0.63104  1.0000
  O2          0.10154      0.81555      0.47660  1.0000
  O1          0.17935      0.31173      0.80720  1.0000
  O3          0.70056      0.88771      0.15463  1.0000
  O2          0.21585      0.92814      0.35414  1.0000
  O1          0.69069      0.76321      0.02832  1.0000
  O2          0.10888      0.31649      0.67385  1.0000
  O1          0.80609      0.11263      0.84518  1.0000
  O2          0.30501      0.22552      0.51641  1.0000
  O3          0.87917      0.69604      0.19760  1.0000
  O2          0.34245      0.67493      0.25813  1.0000
  O2          0.35456      0.69315      0.57472  1.0000
  O1          0.29241      0.65273      0.91523  1.0000
  O2          0.67130      0.35449      0.73559  1.0000
  O1          0.63585      0.34188      0.08638  1.0000
  O2          0.68026      0.34678      0.41818  1.0000
  O1          0.36829      0.29231      0.95576  1.0000
  O2          0.67995      0.07117      0.30514  1.0000
  O2          0.97273      0.64557      0.62968  1.0000
  O2          0.63313      0.69114      0.47024  1.0000
  O1          0.31776      0.95420      0.78779  1.0000
  O1          0.02790      0.38748      0.15132  1.0000
  O2          0.34252      0.39516      0.36330  1.0000
  O1          0.06928      0.70030      0.04015  1.0000
  O3          0.64131      0.96847      0.68343  1.0000
  O1          0.63976      0.61846      0.84941  1.0000
  O2          0.96253      0.35053      0.52183  1.0000
  O3          0.35458      0.03901      0.19797  1.0000
  O1          0.77225      0.28923      0.02221  1.0000
  O2          0.70089      0.48908      0.34644  1.0000
  O3          0.55580      0.24667      0.66209  1.0000
  O2          0.23186      0.71255      0.50383  1.0000
  O1          0.32333      0.54816      0.83590  1.0000
  O2          0.47621      0.78388      0.18615  1.0000
  O2          0.32282      0.79852      0.32660  1.0000
  O1          0.48423      0.70992      0.97849  1.0000
  O2          0.23782      0.54750      0.64477  1.0000
  O3          0.72081      0.25301      0.80405  1.0000
  O2          0.53843      0.32524      0.48839  1.0000
  O1          0.77422      0.45148      0.16518  1.0000
  O1          0.79104      0.53850      0.02379  1.0000
  O2          0.47210      0.27080      0.36311  1.0000
  O2          0.75003      0.21972      0.68845  1.0000
  O2          0.21709      0.48378      0.51984  1.0000
  O1          0.53390      0.77208      0.87534  1.0000
  O2          0.26118      0.79145      0.20131  1.0000
  O2          0.54664      0.82059      0.30814  1.0000
  O1          0.26440      0.45917      0.97807  1.0000
  O2          0.22374      0.76287      0.63102  1.0000
  O3          0.49133      0.21364      0.79601  1.0000
  O2          0.75030      0.55556      0.47217  1.0000
  O1          0.77101      0.23749      0.12373  1.0000
  O1          0.20362      0.32266      0.89505  1.0000
  O2          0.68553      0.93210      0.23644  1.0000
  O2          0.10415      0.78606      0.55859  1.0000
  O2          0.77148      0.69646      0.39967  1.0000
  O1          0.33712      0.12591      0.71785  1.0000
  O1          0.96223      0.26380      0.06739  1.0000
  O2          0.33400      0.25560      0.43486  1.0000
  O1          0.87642      0.67559      0.10818  1.0000
  O3          0.77363      0.08686      0.75496  1.0000
  O1          0.69497      0.73287      0.93497  1.0000
  O2          0.09748      0.34118      0.59177  1.0000
  O2          0.24421      0.91767      0.27218  1.0000
  O1          0.55787      0.52206      0.99114  1.0000
  O2          0.45186      0.04924      0.32355  1.0000
  O2          0.98525      0.42963      0.64780  1.0000
  O2          0.42427      0.46351      0.48940  1.0000
  O1          0.56093      0.97876      0.81423  1.0000
  O1          0.04153      0.62457      0.16029  1.0000
  O2          0.56889      0.61097      0.34442  1.0000
  O1          0.03557      0.46619      0.00824  1.0000
  O1          0.40610      0.97752      0.66021  1.0000
  O1          0.41781      0.37382      0.83828  1.0000
  O2          0.97686      0.57914      0.50402  1.0000
  O3          0.60821      0.03690      0.17570  1.0000
  O3          0.59544      0.19508      0.25625  1.0000
  O2          0.84702      0.43686      0.57720  1.0000
  O1          0.59886      0.41414      0.90788  1.0000
  O1          0.41358      0.81869      0.74063  1.0000
  O1          0.18069      0.58331      0.09081  1.0000
  O2          0.42927      0.60249      0.41710  1.0000
  F           0.47426      0.95595      0.24455  1.0000
  F           0.09696      0.56183      0.57415  1.0000
  F           0.43629      0.51593      0.90993  1.0000
  F           0.52541      0.05825      0.73260  1.0000
  F           0.91805      0.49427      0.08433  1.0000
  F           0.55299      0.47340      0.41528  1.0000
