data_cif

_audit_creation_method             'generated by GULP'

_symmetry_space_group_name_H-M     'P 1'
_symmetry_Int_Tables_number        1
_symmetry_cell_setting             triclinic

_cell_length_a                       12.0914
_cell_length_b                       12.1276
_cell_length_c                       30.2146
_cell_angle_alpha                   89.3081
_cell_angle_beta                    90.5755
_cell_angle_gamma                  119.6389

loop_
_atom_site_label
_atom_site_fract_x
_atom_site_fract_y
_atom_site_fract_z
_atom_site_occupancy
  Si          0.69960      0.37570      0.03389  1.0000
  Ge          0.62967      0.32046      0.38028  1.0000
  Si          0.68120      0.29507      0.70882  1.0000
  Si          0.28903      0.62812      0.54481  1.0000
  Si          0.39238      0.66775      0.86196  1.0000
  Ge          0.28414      0.68517      0.19651  1.0000
  Ge          0.33977      0.67815      0.30146  1.0000
  Si          0.33643      0.62259      0.96014  1.0000
  Si          0.30028      0.68064      0.64323  1.0000
  Si          0.62338      0.28346      0.80708  1.0000
  Ge          0.68622      0.38790      0.48214  1.0000
  Ge          0.70668      0.32671      0.13546  1.0000
  Si          0.52868      0.41575      0.96833  1.0000
  Ge          0.56048      0.11180      0.30924  1.0000
  Si          0.89599      0.47309      0.64882  1.0000
  Ge          0.45108      0.58393      0.47651  1.0000
  Si          0.42749      0.88279      0.80181  1.0000
  Ge          0.10910      0.50758      0.12438  1.0000
  Ge          0.40275      0.52680      0.37313  1.0000
  Ge          0.12832      0.57720      0.02540  1.0000
  Si          0.48171      0.89306      0.70269  1.0000
  Si          0.58640      0.45741      0.86916  1.0000
  Si          0.89142      0.41969      0.54973  1.0000
  Ge          0.52179      0.12871      0.20589  1.0000
  Si          0.30986      0.39024      0.85353  1.0000
  Ge          0.57866      0.90216      0.18466  1.0000
  Si          0.08359      0.70007      0.53355  1.0000
  Ge          0.69305      0.59782      0.36110  1.0000
  Si          0.40737      0.09863      0.69178  1.0000
  Ge          0.89907      0.28817      0.01546  1.0000
  Ge          0.39362      0.29754      0.49360  1.0000
  Ge          0.92779      0.60961      0.15560  1.0000
  Si          0.70352      0.08503      0.81840  1.0000
  Si          0.60984      0.69600      0.97749  1.0000
  Si          0.10744      0.40541      0.65992  1.0000
  Ge          0.26907      0.88967      0.32158  1.0000
  Si          0.25148      0.33963      0.95214  1.0000
  Ge          0.63175      0.89679      0.28766  1.0000
  Si          0.08989      0.75023      0.63253  1.0000
  Ge          0.74281      0.66829      0.46195  1.0000
  Si          0.34656      0.08060      0.79015  1.0000
  Ge          0.90950      0.23000      0.11895  1.0000
  Ge          0.33890      0.24342      0.39132  1.0000
  Ge          0.92530      0.66170      0.05141  1.0000
  Si          0.75670      0.08965      0.71978  1.0000
  Si          0.66949      0.73675      0.87896  1.0000
  Si          0.09714      0.34811      0.56158  1.0000
  Ge          0.24627      0.91551      0.22107  1.0000
  Si          0.97167      0.11388      0.96481  1.0000
  Ge          0.86503      0.84842      0.30889  1.0000
  Si          0.15511      0.02914      0.64568  1.0000
  Si          0.01871      0.88659      0.48357  1.0000
  Si          0.12958      0.14260      0.80521  1.0000
  Ge          0.82173      0.93978      0.13210  1.0000
  Ge          0.10327      0.96186      0.38007  1.0000
  Si          0.85346      0.87449      0.02916  1.0000
  Si          0.03712      0.15485      0.70740  1.0000
  Si          0.88502      0.01416      0.86687  1.0000
  Si          0.14961      0.12308      0.54773  1.0000
  Ge          0.96366      0.84691      0.20666  1.0000
  O2          0.93874      0.00051      0.99970  1.0000
  O1          0.97303      0.93163      0.34952  1.0000
  O2          0.08020      0.07498      0.67727  1.0000
  O2          0.06358      0.00661      0.51577  1.0000
  O2          0.00881      0.06096      0.83650  1.0000
  O1          0.86705      0.85989      0.16657  1.0000
  O1          0.30915      0.55271      0.33625  1.0000
  O2          0.42905      0.76889      0.67149  1.0000
  O3          0.25169      0.66318      0.98802  1.0000
  O2          0.65981      0.40191      0.84000  1.0000
  O1          0.57960      0.25738      0.17046  1.0000
  O3          0.76947      0.34338      0.51918  1.0000
  O2          0.57772      0.34481      0.00248  1.0000
  O2          0.77092      0.42224      0.67995  1.0000
  O1          0.65891      0.22399      0.34680  1.0000
  O3          0.40272      0.66723      0.51068  1.0000
  O1          0.23964      0.56509      0.16133  1.0000
  O2          0.35378      0.75182      0.83004  1.0000
  O2          0.12331      0.21689      0.97085  1.0000
  O1          0.75655      0.89913      0.31489  1.0000
  O2          0.09392      0.87690      0.65212  1.0000
  O3          0.86851      0.80707      0.48485  1.0000
  O2          0.21961      0.07870      0.80871  1.0000
  O1          0.90588      0.09912      0.14255  1.0000
  O1          0.21080      0.11695      0.36781  1.0000
  O3          0.91605      0.78682      0.02576  1.0000
  O2          0.88497      0.09544      0.70079  1.0000
  O2          0.79666      0.86182      0.86043  1.0000
  O2          0.09806      0.22393      0.54266  1.0000
  O1          0.11887      0.93284      0.19715  1.0000
  O1          0.92375      0.88421      0.25651  1.0000
  O2          0.13330      0.06564      0.59677  1.0000
  O2          0.93827      0.05222      0.91633  1.0000
  O2          0.07323      0.13670      0.75683  1.0000
  O3          0.85209      0.91635      0.07845  1.0000
  O3          0.07039      0.94453      0.43579  1.0000
  O3          0.89211      0.18273      0.97451  1.0000
  O1          0.79213      0.68918      0.31814  1.0000
  O2          0.30691      0.09866      0.65535  1.0000
  O2          0.07785      0.79535      0.49678  1.0000
  O2          0.21225      0.29063      0.81752  1.0000
  O1          0.66594      0.89622      0.14058  1.0000
  O1          0.16907      0.87268      0.36537  1.0000
  O2          0.70503      0.79497      0.01378  1.0000
  O2          0.10841      0.30535      0.69631  1.0000
  O2          0.80092      0.08098      0.85515  1.0000
  O3          0.29530      0.19377      0.53494  1.0000
  O1          0.91720      0.68776      0.20058  1.0000
  O1          0.30813      0.63114      0.24784  1.0000
  O2          0.35121      0.68359      0.59329  1.0000
  O2          0.33814      0.67438      0.91014  1.0000
  O2          0.67921      0.34514      0.75851  1.0000
  O3          0.65298      0.30180      0.08034  1.0000
  O1          0.66818      0.30422      0.43411  1.0000
  O2          0.37391      0.33219      0.97197  1.0000
  O1          0.65076      0.04427      0.29460  1.0000
  O2          0.96207      0.62749      0.65133  1.0000
  O1          0.61238      0.65915      0.48689  1.0000
  O2          0.33873      0.94865      0.80654  1.0000
  O1          0.06156      0.34760      0.12869  1.0000
  O1          0.31079      0.36709      0.38359  1.0000
  O1          0.04423      0.65821      0.02270  1.0000
  O2          0.63667      0.96130      0.70006  1.0000
  O2          0.67605      0.61130      0.86446  1.0000
  O2          0.96489      0.33827      0.54483  1.0000
  O1          0.36224      0.04859      0.19439  1.0000
  O3          0.77721      0.32200      0.00716  1.0000
  O1          0.72194      0.47283      0.36101  1.0000
  O2          0.54019      0.23175      0.68576  1.0000
  O2          0.21433      0.69798      0.52395  1.0000
  O2          0.31535      0.52419      0.84242  1.0000
  O1          0.42666      0.80001      0.17245  1.0000
  O1          0.24790      0.73877      0.32019  1.0000
  O2          0.47666      0.69544      0.98345  1.0000
  O2          0.23869      0.53966      0.66603  1.0000
  O2          0.69956      0.21482      0.82769  1.0000
  O1          0.54392      0.33502      0.50923  1.0000
  O1          0.77612      0.48173      0.14973  1.0000
  O3          0.78086      0.52498      0.04294  1.0000
  O1          0.47157      0.26136      0.36502  1.0000
  O2          0.75531      0.21519      0.70237  1.0000
  O2          0.21791      0.47306      0.54100  1.0000
  O2          0.54640      0.73559      0.85724  1.0000
  O1          0.19939      0.76455      0.20196  1.0000
  O1          0.49719      0.78299      0.31339  1.0000
  O2          0.25536      0.46786      0.96867  1.0000
  O2          0.21687      0.75095      0.64999  1.0000
  O2          0.46921      0.20185      0.81110  1.0000
  O1          0.77339      0.54923      0.47680  1.0000
  O1          0.79978      0.25811      0.14496  1.0000
  O2          0.23805      0.32225      0.89910  1.0000
  O1          0.63114      0.86158      0.23258  1.0000
  O2          0.08458      0.76766      0.57963  1.0000
  O1          0.75599      0.69823      0.40599  1.0000
  O2          0.33286      0.08865      0.73718  1.0000
  O1          0.87635      0.20175      0.06307  1.0000
  O1          0.34469      0.20851      0.44650  1.0000
  O1          0.95853      0.69769      0.10600  1.0000
  O2          0.77253      0.08501      0.77281  1.0000
  O2          0.68309      0.75936      0.93165  1.0000
  O2          0.10331      0.33355      0.61465  1.0000
  O1          0.20179      0.92036      0.27625  1.0000
  O2          0.59414      0.55805      0.98849  1.0000
  O1          0.42002      0.00860      0.33565  1.0000
  O2          0.98426      0.41972      0.67028  1.0000
  O1          0.37281      0.42680      0.49137  1.0000
  O2          0.56545      0.96177      0.82596  1.0000
  O1          0.04067      0.56729      0.16268  1.0000
  O1          0.54289      0.56651      0.34603  1.0000
  O1          0.03986      0.42222      0.00749  1.0000
  O2          0.42594      0.97881      0.68091  1.0000
  O2          0.44712      0.40135      0.84633  1.0000
  O2          0.96165      0.56076      0.52680  1.0000
  O1          0.60505      0.05411      0.19027  1.0000
  O1          0.54372      0.17879      0.26053  1.0000
  O2          0.84223      0.41906      0.59975  1.0000
  O2          0.58221      0.40834      0.91981  1.0000
  O2          0.42958      0.83765      0.75177  1.0000
  O1          0.19337      0.58744      0.07660  1.0000
  O1          0.42398      0.60809      0.42207  1.0000
  F           0.39845      0.90872      0.25215  1.0000
  F           0.09938      0.55161      0.59601  1.0000
  F           0.45758      0.54151      0.91632  1.0000
  F           0.55504      0.09267      0.75511  1.0000
  F           0.95276      0.45864      0.08773  1.0000
  F           0.55901      0.46010      0.42568  1.0000
