data_cif

_audit_creation_method             'generated by GULP'

_symmetry_space_group_name_H-M     'P 1'
_symmetry_Int_Tables_number        1
_symmetry_cell_setting             triclinic

_cell_length_a                       12.1318
_cell_length_b                       12.1528
_cell_length_c                       30.1210
_cell_angle_alpha                   89.0132
_cell_angle_beta                    91.1220
_cell_angle_gamma                  119.5957

loop_
_atom_site_label
_atom_site_fract_x
_atom_site_fract_y
_atom_site_fract_z
_atom_site_occupancy
  Si          0.69960      0.37570      0.03389  1.0000
  Si          0.61343      0.31256      0.35588  1.0000
  Ge          0.65789      0.30342      0.70397  1.0000
  Ge          0.30833      0.63581      0.53736  1.0000
  Si          0.34445      0.66501      0.88113  1.0000
  Si          0.30910      0.69301      0.19939  1.0000
  Si          0.37712      0.70824      0.29762  1.0000
  Si          0.30949      0.60769      0.97963  1.0000
  Ge          0.28985      0.68073      0.63828  1.0000
  Ge          0.60004      0.31475      0.80455  1.0000
  Ge          0.65823      0.36474      0.45506  1.0000
  Si          0.68935      0.31180      0.13234  1.0000
  Si          0.52304      0.41815      0.97213  1.0000
  Si          0.57110      0.10629      0.29113  1.0000
  Ge          0.85646      0.46152      0.62827  1.0000
  Ge          0.46676      0.58170      0.46788  1.0000
  Ge          0.40125      0.87932      0.81640  1.0000
  Si          0.09218      0.51189      0.14019  1.0000
  Si          0.41017      0.53296      0.36453  1.0000
  Si          0.09902      0.57030      0.04059  1.0000
  Ge          0.45145      0.87714      0.71208  1.0000
  Si          0.55852      0.47812      0.87243  1.0000
  Ge          0.87257      0.42887      0.52338  1.0000
  Si          0.50916      0.09660      0.19154  1.0000
  Si          0.27571      0.39482      0.86390  1.0000
  Si          0.58139      0.89018      0.18130  1.0000
  Ge          0.10475      0.71631      0.51866  1.0000
  Si          0.69434      0.59661      0.34962  1.0000
  Ge          0.37125      0.08929      0.69205  1.0000
  Si          0.89719      0.29554      0.02349  1.0000
  Ge          0.39033      0.28615      0.48206  1.0000
  Si          0.88564      0.58323      0.14988  1.0000
  Ge          0.67848      0.11321      0.82808  1.0000
  Si          0.58816      0.69236      0.98843  1.0000
  Ge          0.07861      0.39754      0.65162  1.0000
  Si          0.29712      0.90490      0.30843  1.0000
  Si          0.24272      0.33370      0.96303  1.0000
  Si          0.65101      0.90866      0.27976  1.0000
  Ge          0.07471      0.74864      0.62101  1.0000
  Ge          0.75407      0.65310      0.45121  1.0000
  Ge          0.31729      0.08478      0.79489  1.0000
  Si          0.89543      0.23834      0.12267  1.0000
  Ge          0.32925      0.24612      0.37640  1.0000
  Si          0.90167      0.65093      0.05148  1.0000
  Ge          0.73179      0.09230      0.72972  1.0000
  Si          0.62734      0.75093      0.88931  1.0000
  Ge          0.08464      0.35351      0.54991  1.0000
  Si          0.23529      0.89940      0.20956  1.0000
  Si          0.97003      0.11760      0.97665  1.0000
  Si          0.86374      0.84012      0.29506  1.0000
  Ge          0.12205      0.02489      0.63555  1.0000
  Ge          0.03637      0.89177      0.46008  1.0000
  Ge          0.09990      0.14680      0.81229  1.0000
  Si          0.82970      0.95768      0.13530  1.0000
  Si          0.11262      0.96876      0.35612  1.0000
  Si          0.83934      0.86880      0.03747  1.0000
  Ge          0.01342      0.15082      0.70799  1.0000
  Ge          0.85277      0.03285      0.87822  1.0000
  Ge          0.13286      0.11995      0.53104  1.0000
  Si          0.95257      0.83032      0.19708  1.0000
  O2          0.92093      0.99236      0.00739  1.0000
  O2          0.98910      0.92062      0.32431  1.0000
  O1          0.04437      0.08565      0.66282  1.0000
  O1          0.06475      0.02600      0.48543  1.0000
  O1          0.95726      0.05977      0.83604  1.0000
  O2          0.90656      0.91085      0.16708  1.0000
  O2          0.34472      0.59072      0.33133  1.0000
  O1          0.41206      0.75513      0.67691  1.0000
  O2          0.22801      0.64457      0.01230  1.0000
  O3          0.63441      0.44453      0.83803  1.0000
  O2          0.56056      0.22145      0.15995  1.0000
  O1          0.76193      0.33163      0.48666  1.0000
  O2          0.58013      0.34288      0.00090  1.0000
  O1          0.72716      0.41344      0.66186  1.0000
  O2          0.64612      0.23590      0.31938  1.0000
  O1          0.43251      0.67094      0.50185  1.0000
  O2          0.21823      0.56456      0.17191  1.0000
  O3          0.30580      0.74912      0.85037  1.0000
  O2          0.12224      0.20770      0.98402  1.0000
  O2          0.77867      0.90915      0.29792  1.0000
  O1          0.06116      0.86801      0.64673  1.0000
  O1          0.88140      0.78538      0.47157  1.0000
  O1          0.19336      0.08166      0.82300  1.0000
  O2          0.89094      0.10936      0.14142  1.0000
  O3          0.19617      0.11953      0.35205  1.0000
  O2          0.90213      0.77837      0.03340  1.0000
  O1          0.85384      0.07349      0.70937  1.0000
  O3          0.74774      0.87243      0.87028  1.0000
  O1          0.07543      0.22113      0.52617  1.0000
  O2          0.10496      0.89326      0.19138  1.0000
  O2          0.91224      0.83938      0.24637  1.0000
  O1          0.09816      0.03662      0.57929  1.0000
  O3          0.93923      0.06703      0.92733  1.0000
  O1          0.08667      0.13910      0.75508  1.0000
  O2          0.84702      0.92024      0.08652  1.0000
  O3          0.05737      0.92135      0.40386  1.0000
  O2          0.90108      0.19980      0.98714  1.0000
  O2          0.77812      0.69455      0.31055  1.0000
  O1          0.28031      0.10009      0.64928  1.0000
  O1          0.12654      0.82919      0.47816  1.0000
  O3          0.17543      0.30518      0.82734  1.0000
  O2          0.67903      0.88950      0.14506  1.0000
  O2          0.20348      0.90931      0.34515  1.0000
  O2          0.69096      0.78834      0.02443  1.0000
  O1          0.07198      0.30824      0.69736  1.0000
  O1          0.77833      0.11693      0.87246  1.0000
  O1          0.29443      0.19599      0.52438  1.0000
  O2          0.88471      0.68125      0.18596  1.0000
  O2          0.31547      0.64462      0.24979  1.0000
  O1          0.36460      0.66984      0.59134  1.0000
  O2          0.29765      0.66454      0.93148  1.0000
  O1          0.68446      0.37238      0.75608  1.0000
  O2          0.63906      0.31707      0.08227  1.0000
  O3          0.67391      0.30680      0.40272  1.0000
  O2          0.37002      0.32936      0.97785  1.0000
  O2          0.65917      0.03936      0.29642  1.0000
  O1          0.95163      0.61730      0.64355  1.0000
  O1          0.62822      0.67223      0.46399  1.0000
  O1          0.33632      0.97524      0.82463  1.0000
  O2          0.02398      0.35742      0.14305  1.0000
  O3          0.33022      0.38253      0.35815  1.0000
  O2          0.03325      0.65929      0.03586  1.0000
  O1          0.61073      0.94103      0.72176  1.0000
  O2          0.63551      0.63133      0.87049  1.0000
  O1          0.94005      0.33739      0.54048  1.0000
  O2          0.35429      0.02815      0.18965  1.0000
  O2          0.76717      0.30018      0.01366  1.0000
  O2          0.67702      0.45916      0.33792  1.0000
  O1          0.49916      0.23939      0.69251  1.0000
  O1          0.25492      0.73662      0.52009  1.0000
  O2          0.27157      0.52569      0.85875  1.0000
  O2          0.44863      0.75738      0.17647  1.0000
  O2          0.30363      0.77635      0.31902  1.0000
  O2          0.45345      0.68310      0.00001  1.0000
  O1          0.19697      0.54271      0.66716  1.0000
  O1          0.65717      0.23824      0.83897  1.0000
  O1          0.52120      0.26885      0.48560  1.0000
  O2          0.75335      0.45056      0.15589  1.0000
  O2          0.78122      0.52923      0.02997  1.0000
  O3          0.46096      0.24542      0.35698  1.0000
  O1          0.72442      0.20805      0.69822  1.0000
  O1          0.21002      0.47927      0.52412  1.0000
  O2          0.49775      0.74695      0.87255  1.0000
  O2          0.23659      0.77469      0.19268  1.0000
  O2          0.53128      0.78604      0.30130  1.0000
  O2          0.24079      0.45431      0.98392  1.0000
  O1          0.22423      0.77895      0.63679  1.0000
  O1          0.43911      0.23831      0.79741  1.0000
  O1          0.75516      0.52518      0.47419  1.0000
  O2          0.76944      0.23752      0.13963  1.0000
  O2          0.21501      0.31725      0.90998  1.0000
  O2          0.66009      0.90188      0.22668  1.0000
  O1          0.06182      0.76820      0.56456  1.0000
  O3          0.77569      0.65359      0.39360  1.0000
  O1          0.28120      0.04643      0.73947  1.0000
  O2          0.89874      0.22556      0.06954  1.0000
  O1          0.30755      0.22464      0.43218  1.0000
  O2          0.89432      0.66037      0.10459  1.0000
  O1          0.77749      0.13374      0.78409  1.0000
  O2          0.64910      0.76778      0.94279  1.0000
  O1          0.11922      0.34387      0.60535  1.0000
  O2          0.22428      0.90379      0.26273  1.0000
  O2          0.58125      0.55670      0.99463  1.0000
  O2          0.43462      0.02917      0.31545  1.0000
  O1          0.92843      0.37572      0.64399  1.0000
  O1          0.41804      0.43722      0.49252  1.0000
  O1          0.55589      0.96041      0.83362  1.0000
  O2          0.00716      0.56650      0.16169  1.0000
  O2          0.55746      0.58766      0.35193  1.0000
  O2          0.01891      0.43395      0.01646  1.0000
  O1          0.42181      0.98387      0.68252  1.0000
  O2          0.41323      0.41146      0.85302  1.0000
  O1          0.99235      0.56952      0.50129  1.0000
  O2          0.56105      0.00936      0.17017  1.0000
  O2          0.56535      0.15106      0.24063  1.0000
  O1          0.81539      0.45355      0.57303  1.0000
  O2          0.56654      0.42183      0.92133  1.0000
  O1          0.37447      0.82696      0.76227  1.0000
  O2          0.14577      0.56561      0.09106  1.0000
  O3          0.39850      0.56574      0.41482  1.0000
  F           0.44010      0.89578      0.24657  1.0000
  F           0.11195      0.57277      0.58637  1.0000
  F           0.42914      0.54529      0.92610  1.0000
  F           0.55107      0.10718      0.76523  1.0000
  F           0.89070      0.44046      0.08757  1.0000
  F           0.56063      0.43010      0.42413  1.0000
