data_cif

_audit_creation_method             'generated by GULP'

_symmetry_space_group_name_H-M     'P 1'
_symmetry_Int_Tables_number        1
_symmetry_cell_setting             triclinic

_cell_length_a                       12.1090
_cell_length_b                       12.0922
_cell_length_c                       30.0924
_cell_angle_alpha                   88.8947
_cell_angle_beta                    91.2479
_cell_angle_gamma                  119.5164

loop_
_atom_site_label
_atom_site_fract_x
_atom_site_fract_y
_atom_site_fract_z
_atom_site_occupancy
  Si          0.69960      0.37570      0.03389  1.0000
  Si          0.60574      0.30777      0.35449  1.0000
  Ge          0.67627      0.28807      0.69398  1.0000
  Ge          0.34065      0.61703      0.52688  1.0000
  Ge          0.35634      0.65886      0.87784  1.0000
  Si          0.30700      0.68677      0.19973  1.0000
  Si          0.37271      0.69731      0.29839  1.0000
  Si          0.30869      0.61157      0.97673  1.0000
  Ge          0.31674      0.65661      0.63114  1.0000
  Ge          0.63265      0.31012      0.79371  1.0000
  Si          0.68124      0.34198      0.45493  1.0000
  Si          0.68658      0.30831      0.13231  1.0000
  Si          0.52715      0.41319      0.96638  1.0000
  Si          0.56585      0.09790      0.29142  1.0000
  Ge          0.88350      0.43499      0.62024  1.0000
  Ge          0.49393      0.54813      0.46142  1.0000
  Ge          0.43027      0.87610      0.81165  1.0000
  Si          0.09011      0.50632      0.14095  1.0000
  Si          0.40919      0.52439      0.36452  1.0000
  Si          0.10102      0.56808      0.04148  1.0000
  Ge          0.46354      0.85906      0.70669  1.0000
  Ge          0.57623      0.46735      0.86302  1.0000
  Ge          0.90502      0.40543      0.51594  1.0000
  Si          0.50736      0.09242      0.19190  1.0000
  Ge          0.27812      0.39027      0.85212  1.0000
  Si          0.57876      0.88457      0.18221  1.0000
  Ge          0.13042      0.69065      0.50552  1.0000
  Si          0.68931      0.58955      0.34638  1.0000
  Ge          0.38984      0.07405      0.68228  1.0000
  Si          0.89717      0.29442      0.02360  1.0000
  Ge          0.40257      0.26760      0.47845  1.0000
  Si          0.88461      0.58032      0.15087  1.0000
  Ge          0.71638      0.11033      0.81686  1.0000
  Si          0.59449      0.69828      0.98160  1.0000
  Ge          0.10377      0.36415      0.63846  1.0000
  Si          0.29241      0.89586      0.30849  1.0000
  Si          0.24241      0.33124      0.95590  1.0000
  Si          0.64761      0.90101      0.28076  1.0000
  Ge          0.10018      0.71327      0.60593  1.0000
  Si          0.76787      0.63135      0.44643  1.0000
  Ge          0.35420      0.08716      0.78362  1.0000
  Si          0.89217      0.23292      0.12256  1.0000
  Si          0.32709      0.24022      0.37638  1.0000
  Si          0.90394      0.64998      0.05236  1.0000
  Ge          0.75254      0.07916      0.71470  1.0000
  Ge          0.64533      0.75562      0.87954  1.0000
  Ge          0.11484      0.32769      0.53454  1.0000
  Si          0.23369      0.89422      0.20941  1.0000
  Si          0.96940      0.11570      0.97648  1.0000
  Si          0.86647      0.83971      0.29628  1.0000
  Ge          0.13567      0.98747      0.62749  1.0000
  Si          0.04762      0.85713      0.45571  1.0000
  Ge          0.11701      0.12956      0.80336  1.0000
  Si          0.82523      0.95065      0.13538  1.0000
  Si          0.11513      0.96567      0.35782  1.0000
  Si          0.84101      0.86731      0.03694  1.0000
  Ge          0.02430      0.11265      0.69759  1.0000
  Ge          0.88948      0.03632      0.87352  1.0000
  Ge          0.14916      0.08507      0.52410  1.0000
  Si          0.95235      0.82787      0.19796  1.0000
  O2          0.92995      0.99735      0.01067  1.0000
  O2          0.98911      0.92144      0.32732  1.0000
  O1          0.05978      0.01377      0.67048  1.0000
  O3          0.05588      0.95774      0.49065  1.0000
  O1          0.02094      0.05747      0.84817  1.0000
  O2          0.90399      0.90579      0.16729  1.0000
  O2          0.33741      0.57637      0.33082  1.0000
  O1          0.42603      0.72994      0.67371  1.0000
  O2          0.23166      0.64069      0.01396  1.0000
  O1          0.66714      0.43672      0.82904  1.0000
  O2          0.55818      0.21777      0.16002  1.0000
  O3          0.77858      0.30900      0.47930  1.0000
  O2          0.58068      0.34449      0.00055  1.0000
  O1          0.75241      0.39472      0.65102  1.0000
  O2          0.63888      0.22661      0.32073  1.0000
  O1          0.46863      0.64582      0.49723  1.0000
  O2          0.21587      0.55716      0.17262  1.0000
  O1          0.32582      0.76493      0.84728  1.0000
  O2          0.12279      0.20803      0.97891  1.0000
  O2          0.77669      0.90388      0.29905  1.0000
  O1          0.07440      0.83064      0.62888  1.0000
  O2          0.90637      0.73763      0.46181  1.0000
  O1          0.22172      0.07755      0.80853  1.0000
  O2          0.88715      0.10310      0.14101  1.0000
  O2          0.20365      0.11881      0.35348  1.0000
  O2          0.90650      0.77853      0.03386  1.0000
  O1          0.86724      0.06296      0.68796  1.0000
  O1          0.77756      0.88457      0.85996  1.0000
  O1          0.11812      0.20408      0.50859  1.0000
  O2          0.10396      0.88934      0.19078  1.0000
  O2          0.91878      0.84356      0.24771  1.0000
  O1          0.10770      0.04508      0.57804  1.0000
  O3          0.91996      0.05095      0.93021  1.0000
  O1          0.03616      0.09635      0.75418  1.0000
  O2          0.83646      0.90901      0.08658  1.0000
  O2          0.06667      0.92295      0.40724  1.0000
  O2          0.90253      0.20029      0.98706  1.0000
  O2          0.78229      0.69150      0.30992  1.0000
  O1          0.29610      0.06820      0.63747  1.0000
  O3          0.14176      0.80352      0.46434  1.0000
  O1          0.18315      0.29067      0.81149  1.0000
  O2          0.67531      0.88276      0.14583  1.0000
  O2          0.19688      0.89856      0.34478  1.0000
  O2          0.69610      0.78628      0.01969  1.0000
  O1          0.11221      0.26653      0.67979  1.0000
  O1          0.83175      0.13293      0.85695  1.0000
  O1          0.30844      0.14533      0.51433  1.0000
  O2          0.88322      0.67728      0.18753  1.0000
  O2          0.31334      0.63790      0.24991  1.0000
  O1          0.38252      0.64036      0.58313  1.0000
  O3          0.29854      0.67261      0.93078  1.0000
  O1          0.66638      0.36858      0.73959  1.0000
  O2          0.63738      0.31431      0.08189  1.0000
  O2          0.66501      0.30422      0.40262  1.0000
  O2          0.37337      0.33440      0.97137  1.0000
  O2          0.65542      0.03251      0.29696  1.0000
  O1          0.97852      0.59084      0.63408  1.0000
  O3          0.66238      0.65234      0.46788  1.0000
  O1          0.33746      0.94294      0.79452  1.0000
  O2          0.02145      0.35134      0.14295  1.0000
  O2          0.32342      0.36845      0.36185  1.0000
  O2          0.03470      0.65710      0.03610  1.0000
  O1          0.61658      0.96395      0.69081  1.0000
  O1          0.66513      0.62983      0.86704  1.0000
  O1          0.96459      0.30444      0.52587  1.0000
  O2          0.35245      0.02380      0.18955  1.0000
  O2          0.76844      0.30185      0.01287  1.0000
  O2          0.67558      0.45246      0.33534  1.0000
  O1          0.53635      0.19050      0.66621  1.0000
  O1          0.28210      0.71587      0.50896  1.0000
  O1          0.25905      0.52025      0.84792  1.0000
  O2          0.44617      0.75159      0.17664  1.0000
  O2          0.29935      0.76707      0.31888  1.0000
  O2          0.45632      0.67877      0.99454  1.0000
  O1          0.21593      0.51164      0.65553  1.0000
  O1          0.73523      0.26017      0.81371  1.0000
  O3          0.54601      0.26596      0.47806  1.0000
  O2          0.75099      0.44787      0.15557  1.0000
  O2          0.78040      0.53004      0.03085  1.0000
  O2          0.45441      0.24908      0.35637  1.0000
  O1          0.77946      0.23004      0.70333  1.0000
  O1          0.22500      0.46624      0.51120  1.0000
  O1          0.51762      0.75857      0.85675  1.0000
  O2          0.23433      0.76879      0.19233  1.0000
  O2          0.52711      0.77848      0.30211  1.0000
  O2          0.24575      0.45780      0.97361  1.0000
  O1          0.25187      0.75385      0.62397  1.0000
  O1          0.47572      0.21945      0.80860  1.0000
  O2          0.75387      0.49569      0.46275  1.0000
  O2          0.76706      0.23402      0.13950  1.0000
  O3          0.22029      0.31184      0.90367  1.0000
  O2          0.65715      0.89424      0.22762  1.0000
  O1          0.09169      0.75003      0.55046  1.0000
  O2          0.76368      0.64260      0.39246  1.0000
  O1          0.33515      0.11619      0.72800  1.0000
  O2          0.89512      0.22108      0.06936  1.0000
  O3          0.31511      0.21079      0.42809  1.0000
  O2          0.89709      0.65963      0.10553  1.0000
  O1          0.76383      0.06070      0.77130  1.0000
  O3          0.64846      0.77877      0.93754  1.0000
  O1          0.14619      0.32005      0.59044  1.0000
  O2          0.22065      0.89603      0.26256  1.0000
  O2          0.58596      0.56067      0.98003  1.0000
  O2          0.42946      0.02103      0.31565  1.0000
  O1          0.95316      0.34270      0.63354  1.0000
  O1          0.41642      0.40653      0.49558  1.0000
  O1          0.56907      0.99905      0.83451  1.0000
  O2          0.00420      0.55993      0.16264  1.0000
  O2          0.55100      0.57666      0.34409  1.0000
  O2          0.02194      0.43175      0.01706  1.0000
  O1          0.37024      0.92496      0.69229  1.0000
  O1          0.42829      0.41786      0.84042  1.0000
  O1          0.01314      0.54240      0.48925  1.0000
  O2          0.56091      0.00592      0.17065  1.0000
  O2          0.56288      0.14714      0.24116  1.0000
  O1          0.84175      0.42311      0.56399  1.0000
  O3          0.56265      0.40122      0.91687  1.0000
  O1          0.45821      0.82036      0.76216  1.0000
  O2          0.14566      0.56274      0.09215  1.0000
  O3          0.41423      0.57278      0.41316  1.0000
  F           0.43878      0.89272      0.24591  1.0000
  F           0.11261      0.55145      0.57453  1.0000
  F           0.42937      0.56875      0.90754  1.0000
  F           0.56219      0.11957      0.75062  1.0000
  F           0.89007      0.43811      0.08677  1.0000
  F           0.52836      0.44589      0.42374  1.0000
