data_cif

_audit_creation_method             'generated by GULP'

_symmetry_space_group_name_H-M     'P 1'
_symmetry_Int_Tables_number        1
_symmetry_cell_setting             triclinic

_cell_length_a                       12.2445
_cell_length_b                       12.1467
_cell_length_c                       30.1404
_cell_angle_alpha                   90.6273
_cell_angle_beta                    90.3289
_cell_angle_gamma                  120.4266

loop_
_atom_site_label
_atom_site_fract_x
_atom_site_fract_y
_atom_site_fract_z
_atom_site_occupancy
  Ge          0.69960      0.37570      0.03389  1.0000
  Si          0.63592      0.35771      0.36622  1.0000
  Si          0.69604      0.33032      0.68755  1.0000
  Si          0.31927      0.64844      0.53101  1.0000
  Ge          0.37484      0.69782      0.86943  1.0000
  Si          0.33811      0.69974      0.21008  1.0000
  Si          0.40292      0.73514      0.31062  1.0000
  Ge          0.32567      0.63247      0.96980  1.0000
  Si          0.30856      0.70574      0.62881  1.0000
  Ge          0.64935      0.32627      0.78651  1.0000
  Si          0.70132      0.41088      0.46481  1.0000
  Ge          0.67585      0.30189      0.13736  1.0000
  Ge          0.54421      0.41929      0.95766  1.0000
  Si          0.59992      0.14851      0.30110  1.0000
  Si          0.90497      0.49412      0.62280  1.0000
  Si          0.50039      0.61465      0.47180  1.0000
  Ge          0.42924      0.91288      0.80044  1.0000
  Ge          0.11734      0.53933      0.14846  1.0000
  Si          0.44250      0.56289      0.37245  1.0000
  Ge          0.12724      0.59016      0.04474  1.0000
  Si          0.47512      0.91209      0.69734  1.0000
  Ge          0.57903      0.47062      0.85290  1.0000
  Si          0.91693      0.44350      0.52362  1.0000
  Ge          0.52083      0.08347      0.20521  1.0000
  Ge          0.29335      0.41631      0.84735  1.0000
  Si          0.61502      0.90112      0.18883  1.0000
  Si          0.12178      0.72250      0.51232  1.0000
  Si          0.71531      0.63548      0.35541  1.0000
  Si          0.41059      0.13070      0.68306  1.0000
  Ge          0.91245      0.29872      0.02562  1.0000
  Si          0.42938      0.33626      0.48134  1.0000
  Ge          0.88323      0.58246      0.16086  1.0000
  Ge          0.72778      0.13547      0.81068  1.0000
  Ge          0.61167      0.70394      0.98177  1.0000
  Si          0.11065      0.42851      0.64105  1.0000
  Si          0.31871      0.93238      0.31727  1.0000
  Ge          0.25575      0.34929      0.94938  1.0000
  Si          0.68033      0.94656      0.29012  1.0000
  Si          0.10326      0.77215      0.61058  1.0000
  Si          0.77375      0.69090      0.45437  1.0000
  Ge          0.36157      0.13291      0.78526  1.0000
  Ge          0.90879      0.25289      0.12947  1.0000
  Si          0.36113      0.28480      0.38297  1.0000
  Ge          0.91240      0.65086      0.06173  1.0000
  Si          0.76036      0.11544      0.70713  1.0000
  Ge          0.65241      0.75554      0.88071  1.0000
  Si          0.11351      0.36728      0.54267  1.0000
  Si          0.24690      0.89757      0.21686  1.0000
  Ge          0.98141      0.11818      0.96730  1.0000
  Si          0.89274      0.88495      0.30678  1.0000
  Si          0.16670      0.05132      0.62609  1.0000
  Si          0.05564      0.90495      0.46587  1.0000
  Ge          0.11920      0.16802      0.79200  1.0000
  Ge          0.86069      0.97372      0.14033  1.0000
  Si          0.14233      0.00446      0.36765  1.0000
  Ge          0.86189      0.88004      0.03765  1.0000
  Ge          0.03598      0.17182      0.68703  1.0000
  Ge          0.88888      0.03851      0.86172  1.0000
  Si          0.18251      0.15396      0.52821  1.0000
  Ge          0.96055      0.83542      0.20834  1.0000
  O1          0.93387      0.97906      0.99331  1.0000
  O2          0.01875      0.96440      0.33743  1.0000
  O3          0.07349      0.08715      0.64969  1.0000
  O2          0.10366      0.03114      0.49614  1.0000
  O1          0.98683      0.06080      0.81796  1.0000
  O1          0.94990      0.92565      0.16756  1.0000
  O2          0.36892      0.61932      0.34389  1.0000
  O2          0.42655      0.79405      0.66207  1.0000
  O1          0.25333      0.67314      0.01048  1.0000
  O1          0.68162      0.46230      0.81731  1.0000
  O1          0.54830      0.20053      0.16640  1.0000
  O2          0.79092      0.37097      0.49202  1.0000
  O1          0.58763      0.33515      0.99216  1.0000
  O2          0.77448      0.43703      0.65030  1.0000
  O2          0.67099      0.27157      0.33461  1.0000
  O2          0.44726      0.68650      0.50326  1.0000
  O3          0.24760      0.57185      0.18362  1.0000
  O1          0.34004      0.79040      0.83440  1.0000
  O1          0.13972      0.21883      0.97670  1.0000
  O2          0.80347      0.94831      0.31205  1.0000
  O2          0.10254      0.89752      0.62898  1.0000
  O2          0.90388      0.81534      0.47268  1.0000
  O1          0.22988      0.12722      0.80581  1.0000
  O1          0.90963      0.12734      0.15518  1.0000
  O2          0.23282      0.15826      0.36473  1.0000
  O1          0.93348      0.79469      0.04122  1.0000
  O3          0.87350      0.10938      0.68267  1.0000
  O1          0.78684      0.88109      0.85769  1.0000
  O2          0.11892      0.24311      0.52450  1.0000
  O3          0.11303      0.86661      0.19945  1.0000
  O3          0.94124      0.89760      0.25772  1.0000
  O2          0.17603      0.09934      0.57629  1.0000
  O1          0.96844      0.09204      0.91080  1.0000
  O1          0.08644      0.14754      0.73575  1.0000
  O1          0.87876      0.96986      0.08449  1.0000
  O2          0.09154      0.95531      0.41630  1.0000
  O1          0.90176      0.19247      0.98473  1.0000
  O2          0.81059      0.73492      0.31898  1.0000
  O2          0.30988      0.11858      0.64510  1.0000
  O2          0.12289      0.82205      0.47611  1.0000
  O1          0.17936      0.32323      0.80707  1.0000
  O3          0.70231      0.87609      0.15579  1.0000
  O2          0.22436      0.93989      0.35316  1.0000
  O1          0.70280      0.78959      0.02696  1.0000
  O3          0.10898      0.33484      0.67839  1.0000
  O1          0.82166      0.13065      0.85156  1.0000
  O2          0.33163      0.23762      0.51732  1.0000
  O1          0.86951      0.67636      0.20348  1.0000
  O2          0.34730      0.67291      0.26225  1.0000
  O2          0.36996      0.70647      0.58086  1.0000
  O1          0.34072      0.72169      0.92321  1.0000
  O3          0.70641      0.39968      0.73359  1.0000
  O1          0.63605      0.28793      0.08125  1.0000
  O2          0.69498      0.35739      0.41465  1.0000
  O1          0.39021      0.36650      0.97309  1.0000
  O2          0.68499      0.07795      0.30428  1.0000
  O2          0.97235      0.64925      0.62723  1.0000
  O2          0.65523      0.70105      0.47424  1.0000
  O1          0.34224      0.98772      0.79763  1.0000
  O1          0.05883      0.37949      0.13802  1.0000
  O2          0.35310      0.40822      0.36675  1.0000
  O1          0.03566      0.65571      0.03302  1.0000
  O2          0.62805      0.98820      0.69352  1.0000
  O1          0.67148      0.63032      0.86937  1.0000
  O2          0.98490      0.35715      0.52191  1.0000
  O3          0.35458      0.02454      0.19622  1.0000
  O1          0.80277      0.33733      0.00891  1.0000
  O2          0.70932      0.50070      0.34532  1.0000
  O2          0.54832      0.25031      0.67008  1.0000
  O2          0.25413      0.72220      0.50738  1.0000
  O1          0.27336      0.54608      0.84926  1.0000
  O2          0.47862      0.76781      0.18933  1.0000
  O2          0.33185      0.80882      0.32855  1.0000
  O1          0.46389      0.66879      0.99742  1.0000
  O2          0.24040      0.56409      0.65018  1.0000
  O1          0.74587      0.28352      0.81580  1.0000
  O2          0.56160      0.33634      0.48739  1.0000
  O1          0.73223      0.45729      0.15615  1.0000
  O1          0.76264      0.53641      0.04305  1.0000
  O2          0.48196      0.28428      0.36193  1.0000
  O2          0.75789      0.23959      0.69004  1.0000
  O2          0.23901      0.49350      0.52558  1.0000
  O1          0.53165      0.76482      0.85478  1.0000
  O2          0.26303      0.77666      0.20163  1.0000
  O2          0.55434      0.82853      0.31062  1.0000
  O1          0.22667      0.47135      0.96027  1.0000
  O2          0.22727      0.77742      0.63175  1.0000
  O1          0.48930      0.26352      0.80770  1.0000
  O2          0.77318      0.56523      0.47172  1.0000
  O1          0.79581      0.27424      0.15334  1.0000
  O1          0.24392      0.31889      0.89303  1.0000
  O2          0.68890      0.92915      0.23739  1.0000
  O2          0.10958      0.78823      0.55747  1.0000
  O2          0.78653      0.70683      0.40126  1.0000
  O3          0.35686      0.15501      0.72735  1.0000
  O1          0.87330      0.21366      0.07397  1.0000
  O2          0.35164      0.26815      0.43600  1.0000
  O1          0.92152      0.68788      0.11766  1.0000
  O3          0.78785      0.12005      0.75927  1.0000
  O1          0.66552      0.80131      0.93621  1.0000
  O2          0.10844      0.35162      0.59598  1.0000
  O2          0.24449      0.91082      0.27109  1.0000
  O1          0.63568      0.57811      0.97184  1.0000
  O2          0.45673      0.05848      0.32069  1.0000
  O2          0.98517      0.43917      0.64751  1.0000
  O2          0.44714      0.47461      0.49292  1.0000
  O1          0.57864      0.00985      0.82176  1.0000
  O1          0.00631      0.55949      0.17628  1.0000
  O2          0.57837      0.62274      0.34796  1.0000
  O1          0.06130      0.43008      0.03060  1.0000
  O2          0.41708      0.00115      0.68413  1.0000
  O1          0.43997      0.45174      0.82967  1.0000
  O2          0.00227      0.58241      0.50123  1.0000
  O3          0.60313      0.01881      0.17330  1.0000
  O3          0.59909      0.19305      0.25227  1.0000
  O2          0.86117      0.44364      0.57227  1.0000
  O1          0.55181      0.38680      0.90258  1.0000
  O3          0.43685      0.86017      0.74626  1.0000
  O1          0.17643      0.62102      0.10013  1.0000
  O2          0.44573      0.61430      0.42254  1.0000
  F           0.47924      0.95229      0.24418  1.0000
  F           0.11644      0.57395      0.57708  1.0000
  F           0.44435      0.57459      0.91197  1.0000
  F           0.57611      0.16402      0.75630  1.0000
  F           0.90718      0.47517      0.09140  1.0000
  F           0.56940      0.48545      0.41771  1.0000
