data_cif

_audit_creation_method             'generated by GULP'

_symmetry_space_group_name_H-M     'P 1'
_symmetry_Int_Tables_number        1
_symmetry_cell_setting             triclinic

_cell_length_a                       12.1849
_cell_length_b                       12.1605
_cell_length_c                       30.1193
_cell_angle_alpha                   90.7950
_cell_angle_beta                    90.2553
_cell_angle_gamma                  120.0229

loop_
_atom_site_label
_atom_site_fract_x
_atom_site_fract_y
_atom_site_fract_z
_atom_site_occupancy
  Ge          0.69960      0.37570      0.03389  1.0000
  Si          0.62094      0.31830      0.37550  1.0000
  Si          0.68482      0.28992      0.69335  1.0000
  Si          0.29259      0.60892      0.53504  1.0000
  Ge          0.38781      0.69331      0.86131  1.0000
  Ge          0.32080      0.69190      0.21156  1.0000
  Si          0.36715      0.67229      0.31015  1.0000
  Ge          0.32904      0.64068      0.96202  1.0000
  Si          0.29724      0.66888      0.63365  1.0000
  Si          0.63890      0.30224      0.79137  1.0000
  Si          0.67601      0.37166      0.47401  1.0000
  Ge          0.67540      0.31064      0.13322  1.0000
  Ge          0.54292      0.42336      0.96216  1.0000
  Ge          0.57257      0.10376      0.31017  1.0000
  Si          0.89629      0.46633      0.63333  1.0000
  Si          0.46708      0.56771      0.47413  1.0000
  Si          0.42701      0.90001      0.79458  1.0000
  Ge          0.11121      0.53810      0.14054  1.0000
  Si          0.41525      0.50868      0.37403  1.0000
  Ge          0.12280      0.58986      0.03552  1.0000
  Si          0.47501      0.88760      0.69474  1.0000
  Ge          0.58920      0.46568      0.85754  1.0000
  Si          0.89334      0.41055      0.53371  1.0000
  Ge          0.51631      0.10170      0.20451  1.0000
  Ge          0.30555      0.41143      0.84221  1.0000
  Ge          0.59466      0.88467      0.18759  1.0000
  Si          0.09621      0.68644      0.52044  1.0000
  Si          0.69339      0.58977      0.36114  1.0000
  Si          0.40929      0.09601      0.67956  1.0000
  Ge          0.90105      0.30004      0.01358  1.0000
  Si          0.39948      0.29029      0.48664  1.0000
  Ge          0.88013      0.59791      0.14853  1.0000
  Si          0.70920      0.10013      0.80710  1.0000
  Ge          0.61326      0.71528      0.97579  1.0000
  Si          0.10031      0.39286      0.64731  1.0000
  Ge          0.28613      0.87630      0.32351  1.0000
  Ge          0.25960      0.35494      0.94274  1.0000
  Ge          0.65084      0.89192      0.29187  1.0000
  Si          0.09270      0.74251      0.61927  1.0000
  Si          0.74507      0.64929      0.46043  1.0000
  Si          0.35830      0.10492      0.77797  1.0000
  Ge          0.90005      0.25119      0.11588  1.0000
  Si          0.34164      0.23303      0.38740  1.0000
  Ge          0.90451      0.66077      0.04509  1.0000
  Si          0.75359      0.08321      0.70819  1.0000
  Ge          0.67019      0.75499      0.87252  1.0000
  Si          0.09010      0.33188      0.54817  1.0000
  Ge          0.22920      0.88707      0.21923  1.0000
  Ge          0.98018      0.12688      0.96053  1.0000
  Si          0.87250      0.83693      0.31296  1.0000
  Si          0.15666      0.02303      0.63305  1.0000
  Si          0.02449      0.86544      0.47399  1.0000
  Si          0.13685      0.16137      0.79152  1.0000
  Ge          0.84917      0.97121      0.13697  1.0000
  Si          0.11556      0.95336      0.37579  1.0000
  Ge          0.86177      0.89352      0.03244  1.0000
  Si          0.02961      0.14334      0.69455  1.0000
  Ge          0.89330      0.03164      0.85570  1.0000
  Si          0.15190      0.11462      0.53518  1.0000
  Ge          0.94703      0.84047      0.20863  1.0000
  O1          0.94766      0.03246      0.00646  1.0000
  O2          0.99382      0.91818      0.34524  1.0000
  O2          0.07746      0.06592      0.66423  1.0000
  O2          0.06900      0.98839      0.50548  1.0000
  O3          0.03521      0.08885      0.82937  1.0000
  O1          0.90988      0.94194      0.18427  1.0000
  O2          0.33822      0.55651      0.34339  1.0000
  O2          0.42053      0.75750      0.66478  1.0000
  O1          0.25063      0.67660      0.00227  1.0000
  O3          0.67729      0.42103      0.82373  1.0000
  O1          0.55725      0.22840      0.17096  1.0000
  O2          0.76402      0.33557      0.50387  1.0000
  O1          0.57125      0.33442      0.99721  1.0000
  O2          0.77008      0.41293      0.66290  1.0000
  O3          0.66019      0.23534      0.34443  1.0000
  O2          0.41531      0.64315      0.50423  1.0000
  O1          0.22470      0.55842      0.17707  1.0000
  O3          0.34928      0.78509      0.82617  1.0000
  O1          0.13951      0.21738      0.96483  1.0000
  O3          0.78291      0.89707      0.31687  1.0000
  O2          0.09505      0.87041      0.63759  1.0000
  O2          0.87202      0.77488      0.47935  1.0000
  O2          0.23538      0.10863      0.79585  1.0000
  O1          0.91400      0.13076      0.13984  1.0000
  O2          0.21819      0.10384      0.36872  1.0000
  O1          0.91727      0.79318      0.01997  1.0000
  O2          0.87738      0.08127      0.68822  1.0000
  O1          0.80101      0.87420      0.84587  1.0000
  O2          0.09134      0.20594      0.52941  1.0000
  O1          0.10291      0.89422      0.19749  1.0000
  O3          0.92867      0.84387      0.26536  1.0000
  O2          0.14185      0.06494      0.58441  1.0000
  O1          0.92440      0.04370      0.91210  1.0000
  O2          0.06259      0.12591      0.74441  1.0000
  O1          0.88216      0.91823      0.08950  1.0000
  O2          0.06368      0.92211      0.42543  1.0000
  O1          0.91004      0.21700      0.96844  1.0000
  O2          0.78850      0.68676      0.32471  1.0000
  O2          0.30686      0.09124      0.64336  1.0000
  O2          0.09267      0.78329      0.48417  1.0000
  O3          0.20766      0.30986      0.79887  1.0000
  O1          0.68765      0.89362      0.14367  1.0000
  O3          0.18280      0.87355      0.36423  1.0000
  O1          0.70495      0.81984      0.01803  1.0000
  O2          0.09850      0.29358      0.68347  1.0000
  O3          0.80842      0.10790      0.84409  1.0000
  O2          0.30053      0.19367      0.52262  1.0000
  O1          0.86123      0.68823      0.18969  1.0000
  O3          0.32789      0.61601      0.26046  1.0000
  O2          0.35112      0.66745      0.58416  1.0000
  O1          0.30348      0.67899      0.90923  1.0000
  O2          0.69058      0.35395      0.74180  1.0000
  O1          0.61648      0.28701      0.07976  1.0000
  O2          0.67757      0.31710      0.42448  1.0000
  O1          0.38447      0.33088      0.94832  1.0000
  O1          0.66877      0.03889      0.30151  1.0000
  O2          0.96314      0.62097      0.63677  1.0000
  O2          0.62142      0.65528      0.47723  1.0000
  O2          0.34857      0.97633      0.79646  1.0000
  O1          0.04512      0.38069      0.12343  1.0000
  O2          0.33211      0.35376      0.36917  1.0000
  O1          0.02586      0.65005      0.02199  1.0000
  O2          0.62893      0.95304      0.69080  1.0000
  O1          0.65497      0.62412      0.84563  1.0000
  O2          0.95994      0.32289      0.52953  1.0000
  O1          0.35618      0.01222      0.19497  1.0000
  O1          0.77647      0.31939      0.00003  1.0000
  O2          0.69315      0.45751      0.35236  1.0000
  O2          0.54367      0.22398      0.67024  1.0000
  O2          0.22721      0.68406      0.51226  1.0000
  O1          0.32772      0.55638      0.82849  1.0000
  O1          0.45260      0.75194      0.17722  1.0000
  O3          0.27715      0.72925      0.32463  1.0000
  O1          0.48609      0.73933      0.97531  1.0000
  O2          0.23188      0.52702      0.65474  1.0000
  O2          0.71070      0.23334      0.81318  1.0000
  O2          0.53392      0.29532      0.49476  1.0000
  O1          0.73118      0.46744      0.14751  1.0000
  O1          0.75706      0.53941      0.03004  1.0000
  O2          0.46541      0.23223      0.36761  1.0000
  O2          0.75713      0.20814      0.68859  1.0000
  O2          0.21374      0.45474      0.52905  1.0000
  O1          0.55006      0.78656      0.86339  1.0000
  O1          0.21027      0.74364      0.20265  1.0000
  O3          0.51530      0.77663      0.31692  1.0000
  O1          0.26838      0.48129      0.97188  1.0000
  O2          0.21536      0.74062      0.63862  1.0000
  O2          0.48453      0.22918      0.79682  1.0000
  O2          0.74358      0.52524      0.47944  1.0000
  O1          0.77918      0.25617      0.14324  1.0000
  O1          0.21204      0.35017      0.88834  1.0000
  O1          0.65960      0.86496      0.23659  1.0000
  O2          0.09326      0.75674      0.56601  1.0000
  O2          0.76061      0.66262      0.40731  1.0000
  O2          0.34145      0.10224      0.72464  1.0000
  O1          0.86509      0.20752      0.06069  1.0000
  O2          0.32866      0.21967      0.44061  1.0000
  O1          0.92026      0.68943      0.10200  1.0000
  O2          0.77419      0.08715      0.76145  1.0000
  O1          0.70446      0.76414      0.92875  1.0000
  O2          0.09315      0.31896      0.60130  1.0000
  O1          0.22506      0.90222      0.27638  1.0000
  O1          0.56611      0.56203      0.98813  1.0000
  O1          0.43743      0.99187      0.33569  1.0000
  O2          0.98066      0.41232      0.65600  1.0000
  O2          0.41522      0.42874      0.49528  1.0000
  O2          0.57029      0.98042      0.81567  1.0000
  O1          0.99029      0.55695      0.16287  1.0000
  O2          0.55472      0.57311      0.35151  1.0000
  O1          0.04923      0.43233      0.01982  1.0000
  O2          0.41914      0.96954      0.67143  1.0000
  O1          0.43269      0.38751      0.84221  1.0000
  O2          0.97355      0.54828      0.51053  1.0000
  O1          0.59835      0.02817      0.18791  1.0000
  O1          0.54364      0.14928      0.25985  1.0000
  O2          0.84505      0.41320      0.58340  1.0000
  O1          0.62226      0.45217      0.91202  1.0000
  O2          0.42614      0.84417      0.74472  1.0000
  O1          0.16429      0.62040      0.09102  1.0000
  O2          0.41488      0.56099      0.42387  1.0000
  F           0.41833      0.85718      0.24669  1.0000
  F           0.10013      0.54105      0.58190  1.0000
  F           0.44466      0.56621      0.90437  1.0000
  F           0.56179      0.10424      0.74206  1.0000
  F           0.86043      0.43732      0.07633  1.0000
  F           0.54639      0.43292      0.42006  1.0000
