data_cif

_audit_creation_method             'generated by GULP'

_symmetry_space_group_name_H-M     'P 1'
_symmetry_Int_Tables_number        1
_symmetry_cell_setting             triclinic

_cell_length_a                       12.1501
_cell_length_b                       12.1933
_cell_length_c                       30.2962
_cell_angle_alpha                   90.4145
_cell_angle_beta                    89.5644
_cell_angle_gamma                  119.8723

loop_
_atom_site_label
_atom_site_fract_x
_atom_site_fract_y
_atom_site_fract_z
_atom_site_occupancy
  Si          0.69960      0.37570      0.03389  1.0000
  Ge          0.63385      0.31947      0.38384  1.0000
  Si          0.67744      0.29018      0.71391  1.0000
  Si          0.30960      0.63326      0.56012  1.0000
  Si          0.39293      0.68447      0.87553  1.0000
  Ge          0.31963      0.66855      0.21475  1.0000
  Ge          0.38366      0.68307      0.31612  1.0000
  Si          0.33960      0.62668      0.97297  1.0000
  Si          0.29703      0.67600      0.65823  1.0000
  Si          0.62568      0.29872      0.81194  1.0000
  Ge          0.70213      0.37767      0.48467  1.0000
  Ge          0.68740      0.31717      0.13529  1.0000
  Si          0.53602      0.42278      0.97085  1.0000
  Ge          0.59690      0.12017      0.30889  1.0000
  Si          0.89322      0.46514      0.65311  1.0000
  Ge          0.46407      0.57427      0.49484  1.0000
  Si          0.42654      0.89841      0.81643  1.0000
  Ge          0.10782      0.51937      0.14397  1.0000
  Ge          0.40756      0.51937      0.39116  1.0000
  Ge          0.12897      0.57710      0.04060  1.0000
  Si          0.47538      0.89066      0.71748  1.0000
  Si          0.59063      0.47878      0.87193  1.0000
  Si          0.90839      0.42275      0.55384  1.0000
  Ge          0.53719      0.09963      0.20407  1.0000
  Si          0.31351      0.40977      0.85942  1.0000
  Ge          0.60397      0.87841      0.19149  1.0000
  Si          0.10725      0.70302      0.54478  1.0000
  Ge          0.69857      0.60377      0.36981  1.0000
  Si          0.40132      0.09280      0.70198  1.0000
  Si          0.90229      0.29447      0.02563  1.0000
  Ge          0.41854      0.29626      0.50429  1.0000
  Ge          0.89695      0.59545      0.14988  1.0000
  Si          0.70323      0.10268      0.82769  1.0000
  Si          0.61244      0.69943      0.98702  1.0000
  Si          0.10298      0.39932      0.66830  1.0000
  Ge          0.30920      0.90018      0.32700  1.0000
  Si          0.26082      0.35024      0.95747  1.0000
  Ge          0.65445      0.90298      0.29129  1.0000
  Si          0.08886      0.74352      0.64331  1.0000
  Ge          0.75359      0.66104      0.47248  1.0000
  Si          0.34735      0.09431      0.80051  1.0000
  Si          0.89798      0.23908      0.12579  1.0000
  Ge          0.34660      0.24067      0.40571  1.0000
  Ge          0.91951      0.65656      0.05119  1.0000
  Si          0.75197      0.08769      0.72960  1.0000
  Si          0.67171      0.75517      0.88887  1.0000
  Si          0.11289      0.35285      0.56968  1.0000
  Ge          0.24799      0.89042      0.22501  1.0000
  Si          0.98266      0.12999      0.97277  1.0000
  Ge          0.88063      0.84705      0.31242  1.0000
  Si          0.14888      0.01840      0.65580  1.0000
  Ge          0.03696      0.87849      0.49109  1.0000
  Si          0.13138      0.15889      0.81378  1.0000
  Ge          0.85260      0.95923      0.13812  1.0000
  Ge          0.12141      0.95665      0.38469  1.0000
  Ge          0.86601      0.87972      0.03358  1.0000
  Si          0.03145      0.15044      0.71642  1.0000
  Si          0.88428      0.03527      0.87510  1.0000
  Ge          0.16947      0.12635      0.55707  1.0000
  Ge          0.96625      0.83838      0.20779  1.0000
  O3          0.95600      0.01567      0.00353  1.0000
  O1          0.99574      0.91910      0.35171  1.0000
  O2          0.07451      0.06966      0.68631  1.0000
  O1          0.08254      0.01779      0.51695  1.0000
  O2          0.01012      0.08156      0.84553  1.0000
  O1          0.93944      0.94322      0.17892  1.0000
  O1          0.33004      0.56802      0.35589  1.0000
  O2          0.41954      0.76068      0.68918  1.0000
  O3          0.25893      0.66107      0.00616  1.0000
  O2          0.66380      0.42558      0.84110  1.0000
  O1          0.56103      0.21821      0.16736  1.0000
  O3          0.79635      0.34616      0.51982  1.0000
  O2          0.58400      0.34231      0.99965  1.0000
  O2          0.76338      0.41014      0.68214  1.0000
  O1          0.67692      0.24998      0.34240  1.0000
  O3          0.42948      0.66988      0.52892  1.0000
  O1          0.22601      0.54419      0.18051  1.0000
  O2          0.35496      0.77273      0.84695  1.0000
  O2          0.13389      0.22687      0.97535  1.0000
  O1          0.79483      0.91906      0.31404  1.0000
  O2          0.08730      0.86697      0.66393  1.0000
  O1          0.87686      0.78751      0.49844  1.0000
  O2          0.22285      0.09811      0.81911  1.0000
  O3          0.89741      0.11818      0.14414  1.0000
  O1          0.21508      0.11578      0.38165  1.0000
  O1          0.92277      0.78142      0.02267  1.0000
  O2          0.87876      0.08804      0.71142  1.0000
  O2          0.79556      0.88260      0.87019  1.0000
  O3          0.11371      0.23200      0.55049  1.0000
  O1          0.12499      0.88771      0.19805  1.0000
  O1          0.95603      0.85408      0.26359  1.0000
  O3          0.12695      0.04640      0.60676  1.0000
  O2          0.93355      0.07530      0.92442  1.0000
  O2          0.07363      0.14146      0.76547  1.0000
  O1          0.89257      0.93150      0.08713  1.0000
  O1          0.06266      0.89618      0.43568  1.0000
  O2          0.90388      0.19799      0.98899  1.0000
  O1          0.78767      0.68856      0.32585  1.0000
  O2          0.30029      0.08800      0.66586  1.0000
  O3          0.11631      0.80151      0.50866  1.0000
  O2          0.21398      0.30944      0.82370  1.0000
  O1          0.69413      0.87045      0.14778  1.0000
  O1          0.20895      0.88761      0.36900  1.0000
  O3          0.70346      0.79603      0.02414  1.0000
  O2          0.09876      0.29868      0.70424  1.0000
  O2          0.80256      0.10276      0.86356  1.0000
  O1          0.32588      0.19697      0.54811  1.0000
  O1          0.87710      0.68744      0.19107  1.0000
  O1          0.35027      0.61676      0.26328  1.0000
  O2          0.35990      0.68320      0.60991  1.0000
  O2          0.33657      0.68279      0.92461  1.0000
  O2          0.67954      0.34992      0.76248  1.0000
  O3          0.63994      0.30995      0.08053  1.0000
  O1          0.67654      0.29413      0.43582  1.0000
  O2          0.38161      0.33960      0.97509  1.0000
  O1          0.69384      0.05652      0.30458  1.0000
  O2          0.95815      0.61844      0.65858  1.0000
  O1          0.62518      0.64167      0.50199  1.0000
  O2          0.33946      0.96601      0.81982  1.0000
  O3          0.03324      0.35654      0.13825  1.0000
  O1          0.31198      0.35977      0.39705  1.0000
  O1          0.05447      0.66286      0.03200  1.0000
  O2          0.62958      0.95653      0.71298  1.0000
  O2          0.67784      0.63292      0.86979  1.0000
  O2          0.98416      0.34481      0.55132  1.0000
  O1          0.37894      0.99644      0.19610  1.0000
  O2          0.78473      0.31661      0.01436  1.0000
  O1          0.72383      0.47727      0.37248  1.0000
  O2          0.53465      0.22288      0.69310  1.0000
  O2          0.24062      0.70451      0.53838  1.0000
  O2          0.31778      0.54410      0.85274  1.0000
  O1          0.45478      0.75461      0.18306  1.0000
  O1          0.29298      0.75271      0.32579  1.0000
  O2          0.48022      0.69867      0.99477  1.0000
  O2          0.23008      0.53365      0.67883  1.0000
  O2          0.70195      0.23464      0.83452  1.0000
  O1          0.56530      0.31838      0.51594  1.0000
  O1          0.74660      0.46470      0.15683  1.0000
  O3          0.77806      0.52570      0.03465  1.0000
  O1          0.47238      0.24978      0.37592  1.0000
  O2          0.74971      0.20854      0.70931  1.0000
  O2          0.23727      0.47984      0.55244  1.0000
  O2          0.54689      0.75560      0.87112  1.0000
  O1          0.23402      0.74340      0.22424  1.0000
  O1          0.54411      0.77800      0.32380  1.0000
  O2          0.25931      0.47209      0.97812  1.0000
  O2          0.21247      0.74500      0.66337  1.0000
  O2          0.47205      0.21926      0.81841  1.0000
  O1          0.78251      0.53717      0.47636  1.0000
  O3          0.78695      0.25634      0.14706  1.0000
  O2          0.24519      0.33728      0.90461  1.0000
  O1          0.67997      0.86654      0.23748  1.0000
  O2          0.09526      0.76728      0.59061  1.0000
  O1          0.74586      0.69336      0.41762  1.0000
  O2          0.33064      0.09152      0.74766  1.0000
  O2          0.87684      0.22306      0.07240  1.0000
  O1          0.33826      0.19717      0.46014  1.0000
  O1          0.91725      0.69566      0.10570  1.0000
  O2          0.76992      0.09388      0.78244  1.0000
  O2          0.68931      0.76869      0.94191  1.0000
  O2          0.11190      0.33432      0.62282  1.0000
  O1          0.25814      0.93734      0.27933  1.0000
  O2          0.59680      0.56074      0.99472  1.0000
  O1          0.46082      0.01767      0.33799  1.0000
  O2          0.97572      0.40846      0.67521  1.0000
  O1          0.39113      0.42066      0.51171  1.0000
  O2          0.56586      0.98213      0.83849  1.0000
  O1          0.02703      0.58619      0.16866  1.0000
  O1          0.54111      0.55109      0.36083  1.0000
  O3          0.03467      0.42142      0.02339  1.0000
  O2          0.41865      0.97126      0.69395  1.0000
  O2          0.45167      0.42578      0.84998  1.0000
  O2          0.98449      0.56636      0.53423  1.0000
  O1          0.62036      0.02714      0.18741  1.0000
  O1          0.57067      0.16220      0.25693  1.0000
  O2          0.84871      0.41816      0.60276  1.0000
  O2          0.58774      0.42539      0.92115  1.0000
  O2          0.42600      0.84475      0.76737  1.0000
  O1          0.17916      0.58812      0.09388  1.0000
  O1          0.43057      0.59563      0.44118  1.0000
  F           0.49030      0.89148      0.26210  1.0000
  F           0.10826      0.55338      0.60604  1.0000
  F           0.46028      0.55526      0.92481  1.0000
  F           0.55347      0.09885      0.76553  1.0000
  F           0.91327      0.48437      0.09655  1.0000
  F           0.53321      0.42172      0.44238  1.0000
