data_cif

_audit_creation_method             'generated by GULP'

_symmetry_space_group_name_H-M     'P 1'
_symmetry_Int_Tables_number        1
_symmetry_cell_setting             triclinic

_cell_length_a                       12.2170
_cell_length_b                       12.2049
_cell_length_c                       30.2496
_cell_angle_alpha                   89.7203
_cell_angle_beta                    89.7820
_cell_angle_gamma                  120.4366

loop_
_atom_site_label
_atom_site_fract_x
_atom_site_fract_y
_atom_site_fract_z
_atom_site_occupancy
  Si          0.69960      0.37570      0.03389  1.0000
  Ge          0.61236      0.33192      0.37035  1.0000
  Si          0.66450      0.30674      0.71514  1.0000
  Ge          0.29205      0.62696      0.53969  1.0000
  Si          0.37376      0.65781      0.87452  1.0000
  Si          0.32764      0.70461      0.19587  1.0000
  Ge          0.38411      0.72516      0.29330  1.0000
  Si          0.30947      0.60832      0.97366  1.0000
  Ge          0.30979      0.69904      0.64196  1.0000
  Si          0.60664      0.27979      0.81623  1.0000
  Ge          0.67347      0.37847      0.46998  1.0000
  Si          0.71598      0.32741      0.13379  1.0000
  Si          0.51414      0.40748      0.97697  1.0000
  Ge          0.58565      0.12540      0.30294  1.0000
  Ge          0.87382      0.46428      0.64920  1.0000
  Ge          0.44779      0.58107      0.46421  1.0000
  Si          0.40556      0.86559      0.81081  1.0000
  Si          0.12611      0.53697      0.12957  1.0000
  Ge          0.39995      0.53869      0.35911  1.0000
  Ge          0.08506      0.56406      0.03360  1.0000
  Ge          0.47410      0.90997      0.71305  1.0000
  Si          0.56894      0.45398      0.87835  1.0000
  Ge          0.86748      0.41253      0.54646  1.0000
  Si          0.54178      0.11941      0.19964  1.0000
  Si          0.29528      0.38203      0.86315  1.0000
  Si          0.61052      0.90531      0.18614  1.0000
  Ge          0.07744      0.69604      0.52423  1.0000
  Ge          0.68272      0.59927      0.34179  1.0000
  Si          0.38689      0.09893      0.69728  1.0000
  Si          0.89502      0.29354      0.01423  1.0000
  Ge          0.38003      0.29363      0.47616  1.0000
  Si          0.91686      0.60882      0.14486  1.0000
  Si          0.68836      0.08033      0.82613  1.0000
  Si          0.58539      0.68426      0.98814  1.0000
  Ge          0.10281      0.41055      0.65995  1.0000
  Si          0.29615      0.90724      0.31514  1.0000
  Si          0.23903      0.32919      0.96176  1.0000
  Ge          0.66551      0.91705      0.28717  1.0000
  Ge          0.07899      0.74689      0.62626  1.0000
  Ge          0.73429      0.65621      0.44434  1.0000
  Si          0.32628      0.06661      0.79824  1.0000
  Si          0.92330      0.25604      0.11486  1.0000
  Ge          0.32903      0.25383      0.37367  1.0000
  Si          0.90780      0.66123      0.04473  1.0000
  Ge          0.74865      0.10256      0.72468  1.0000
  Si          0.64999      0.73059      0.88983  1.0000
  Ge          0.07917      0.34056      0.55911  1.0000
  Si          0.26008      0.91799      0.21305  1.0000
  Si          0.95769      0.10923      0.97151  1.0000
  Ge          0.87977      0.84793      0.29323  1.0000
  Ge          0.14426      0.03508      0.64464  1.0000
  Ge          0.01571      0.88135      0.46907  1.0000
  Si          0.11629      0.13396      0.81372  1.0000
  Si          0.85539      0.97535      0.13264  1.0000
  Ge          0.11378      0.97259      0.36561  1.0000
  Si          0.83166      0.86806      0.03501  1.0000
  Ge          0.04245      0.16869      0.71315  1.0000
  Si          0.86674      0.00970      0.87431  1.0000
  Ge          0.13831      0.11779      0.53852  1.0000
  Si          0.98714      0.85881      0.19359  1.0000
  O2          0.91177      0.98863      0.00341  1.0000
  O1          0.97974      0.87946      0.33657  1.0000
  O1          0.05168      0.06648      0.67790  1.0000
  O1          0.03771      0.97800      0.51324  1.0000
  O2          0.98695      0.05194      0.84210  1.0000
  O2          0.94051      0.93569      0.16221  1.0000
  O1          0.32302      0.58783      0.32614  1.0000
  O1          0.43217      0.78535      0.67551  1.0000
  O3          0.22346      0.64667      0.99980  1.0000
  O2          0.64100      0.39715      0.84876  1.0000
  O2          0.59578      0.23987      0.16542  1.0000
  O1          0.74083      0.33409      0.51040  1.0000
  O2          0.56855      0.33613      0.00833  1.0000
  O3          0.74750      0.43159      0.68610  1.0000
  O1          0.66328      0.24819      0.33610  1.0000
  O1          0.41097      0.66423      0.50084  1.0000
  O2          0.24508      0.58806      0.16279  1.0000
  O2          0.33637      0.74343      0.84381  1.0000
  O2          0.10856      0.20432      0.97952  1.0000
  O1          0.81203      0.93798      0.30119  1.0000
  O1          0.07647      0.87621      0.64822  1.0000
  O1          0.85528      0.79596      0.46518  1.0000
  O2          0.20469      0.06944      0.81921  1.0000
  O2          0.92122      0.12954      0.13373  1.0000
  O1          0.19257      0.12766      0.35038  1.0000
  O2          0.89081      0.77779      0.02849  1.0000
  O1          0.89047      0.13432      0.70422  1.0000
  O2          0.77693      0.85648      0.87083  1.0000
  O1          0.07348      0.21213      0.53330  1.0000
  O2          0.14049      0.91866      0.18953  1.0000
  O3          0.95869      0.87811      0.24285  1.0000
  O1          0.15348      0.09618      0.59356  1.0000
  O2          0.92638      0.05570      0.92230  1.0000
  O3          0.07268      0.12803      0.76451  1.0000
  O2          0.85127      0.92277      0.08413  1.0000
  O1          0.08069      0.96392      0.42100  1.0000
  O2          0.87962      0.18148      0.98117  1.0000
  O1          0.76802      0.69134      0.29667  1.0000
  O3          0.30047      0.11987      0.66328  1.0000
  O1          0.08020      0.78877      0.48036  1.0000
  O2          0.19762      0.28209      0.82721  1.0000
  O2          0.71000      0.91410      0.14822  1.0000
  O3          0.20844      0.90846      0.35386  1.0000
  O2          0.68161      0.78575      0.02458  1.0000
  O1          0.13020      0.32570      0.70113  1.0000
  O2          0.78144      0.07331      0.86328  1.0000
  O1          0.28655      0.18533      0.51650  1.0000
  O2          0.91995      0.70883      0.18103  1.0000
  O3          0.32615      0.64332      0.24199  1.0000
  O1          0.35374      0.71820      0.58605  1.0000
  O2          0.31652      0.65644      0.92268  1.0000
  O2          0.66221      0.33729      0.76753  1.0000
  O2          0.66338      0.33094      0.08522  1.0000
  O1          0.65303      0.29626      0.42136  1.0000
  O2          0.35955      0.31916      0.98037  1.0000
  O1          0.68030      0.05753      0.30184  1.0000
  O1          0.93031      0.62290      0.63895  1.0000
  O1          0.60473      0.63260      0.47418  1.0000
  O2          0.32223      0.93748      0.81410  1.0000
  O2          0.05202      0.37990      0.13193  1.0000
  O1          0.30151      0.37642      0.36843  1.0000
  O3          0.03488      0.67833      0.02436  1.0000
  O1          0.63587      0.96355      0.70295  1.0000
  O2          0.65828      0.60813      0.87273  1.0000
  O1          0.95589      0.34370      0.53340  1.0000
  O2          0.38785      0.04249      0.19471  1.0000
  O2          0.76298      0.29811      0.01282  1.0000
  O1          0.71395      0.47862      0.34592  1.0000
  O2          0.52049      0.23385      0.69692  1.0000
  O1          0.19338      0.66310      0.51036  1.0000
  O2          0.30163      0.51597      0.85279  1.0000
  O2          0.47183      0.78480      0.17495  1.0000
  O3          0.28450      0.77238      0.31906  1.0000
  O2          0.45347      0.68270      0.99402  1.0000
  O1          0.25026      0.54035      0.65469  1.0000
  O2          0.67720      0.20632      0.83462  1.0000
  O1          0.52886      0.33726      0.49399  1.0000
  O2          0.78962      0.47085      0.15349  1.0000
  O2          0.78645      0.52799      0.02815  1.0000
  O1          0.45702      0.25672      0.34930  1.0000
  O3          0.74016      0.23332      0.70577  1.0000
  O1          0.22905      0.46692      0.54848  1.0000
  O2          0.52798      0.73090      0.86957  1.0000
  O2          0.26158      0.79245      0.19803  1.0000
  O1          0.54466      0.78339      0.31161  1.0000
  O2          0.24278      0.45393      0.98041  1.0000
  O1          0.19620      0.73895      0.65346  1.0000
  O2          0.45475      0.18713      0.81623  1.0000
  O1          0.76730      0.53846      0.45645  1.0000
  O2          0.80345      0.26314      0.13428  1.0000
  O2          0.22424      0.31289      0.90881  1.0000
  O3          0.67255      0.89112      0.22983  1.0000
  O1          0.11119      0.78768      0.57107  1.0000
  O1          0.73341      0.69090      0.38914  1.0000
  O2          0.31442      0.07258      0.74544  1.0000
  O2          0.91502      0.24215      0.06206  1.0000
  O1          0.32596      0.20779      0.42848  1.0000
  O2          0.91080      0.67016      0.09850  1.0000
  O3          0.76522      0.09541      0.78199  1.0000
  O2          0.66278      0.74954      0.94271  1.0000
  O1          0.05707      0.30988      0.61505  1.0000
  O2          0.24663      0.92526      0.26603  1.0000
  O2          0.57044      0.54701      0.99898  1.0000
  O3          0.43668      0.02221      0.32469  1.0000
  O1          0.98380      0.43907      0.67576  1.0000
  O1          0.35499      0.42039      0.47439  1.0000
  O2          0.54900      0.95593      0.82991  1.0000
  O2          0.03807      0.59153      0.15001  1.0000
  O1          0.52738      0.54742      0.33087  1.0000
  O3          0.01326      0.42358      0.99943  1.0000
  O3          0.39773      0.97992      0.68264  1.0000
  O2          0.43114      0.39209      0.85460  1.0000
  O1          0.92689      0.56675      0.52806  1.0000
  O2          0.60229      0.03382      0.18517  1.0000
  O3          0.57898      0.17200      0.24808  1.0000
  O1          0.81213      0.38203      0.60057  1.0000
  O2          0.56945      0.40425      0.92822  1.0000
  O3          0.40084      0.81600      0.76210  1.0000
  O3          0.18110      0.58771      0.08194  1.0000
  O1          0.43292      0.61420      0.40993  1.0000
  F           0.45992      0.88103      0.25954  1.0000
  F           0.07459      0.54305      0.59043  1.0000
  F           0.44647      0.52884      0.92398  1.0000
  F           0.53485      0.05571      0.75120  1.0000
  F           0.94546      0.47497      0.07132  1.0000
  F           0.54511      0.43195      0.40855  1.0000
