data_cif

_audit_creation_method             'generated by GULP'

_symmetry_space_group_name_H-M     'P 1'
_symmetry_Int_Tables_number        1
_symmetry_cell_setting             triclinic

_cell_length_a                       12.2252
_cell_length_b                       12.2468
_cell_length_c                       30.2660
_cell_angle_alpha                   89.5990
_cell_angle_beta                    89.7056
_cell_angle_gamma                  120.6484

loop_
_atom_site_label
_atom_site_fract_x
_atom_site_fract_y
_atom_site_fract_z
_atom_site_occupancy
  Ge          0.69960      0.37570      0.03389  1.0000
  Si          0.62634      0.32973      0.35695  1.0000
  Ge          0.68694      0.29254      0.68501  1.0000
  Si          0.29691      0.61025      0.51659  1.0000
  Ge          0.37044      0.67316      0.86178  1.0000
  Si          0.33733      0.70496      0.20292  1.0000
  Si          0.39385      0.71203      0.30080  1.0000
  Ge          0.31347      0.62013      0.96645  1.0000
  Si          0.29441      0.65493      0.61505  1.0000
  Ge          0.62178      0.28976      0.78642  1.0000
  Si          0.68008      0.37896      0.45520  1.0000
  Si          0.70465      0.32404      0.13546  1.0000
  Ge          0.52679      0.39967      0.96412  1.0000
  Si          0.59150      0.11601      0.29709  1.0000
  Si          0.89226      0.45946      0.61461  1.0000
  Si          0.47922      0.57805      0.45805  1.0000
  Ge          0.38864      0.86298      0.78706  1.0000
  Ge          0.12967      0.54623      0.13704  1.0000
  Si          0.42918      0.53080      0.35905  1.0000
  Ge          0.11106      0.58918      0.03695  1.0000
  Ge          0.44628      0.86027      0.68331  1.0000
  Ge          0.57983      0.44967      0.86002  1.0000
  Si          0.89350      0.41385      0.51523  1.0000
  Si          0.53566      0.10333      0.19820  1.0000
  Ge          0.29104      0.38496      0.84804  1.0000
  Si          0.61134      0.90445      0.18642  1.0000
  Si          0.10413      0.69165      0.50287  1.0000
  Si          0.70530      0.60521      0.34405  1.0000
  Ge          0.40065      0.09000      0.67134  1.0000
  Ge          0.91412      0.30494      0.01643  1.0000
  Si          0.40459      0.30032      0.47048  1.0000
  Ge          0.90437      0.60927      0.14980  1.0000
  Ge          0.68107      0.07138      0.80606  1.0000
  Ge          0.59376      0.68414      0.98422  1.0000
  Si          0.08963      0.37906      0.62658  1.0000
  Si          0.31350      0.90669      0.31188  1.0000
  Ge          0.24375      0.33038      0.95204  1.0000
  Si          0.67279      0.92078      0.28461  1.0000
  Si          0.09799      0.73637      0.60163  1.0000
  Si          0.75530      0.65744      0.44249  1.0000
  Ge          0.32864      0.08009      0.77073  1.0000
  Si          0.92465      0.26132      0.11825  1.0000
  Si          0.34903      0.25481      0.37197  1.0000
  Ge          0.91505      0.67033      0.04559  1.0000
  Ge          0.73611      0.06289      0.70343  1.0000
  Ge          0.63973      0.71989      0.88354  1.0000
  Si          0.08757      0.33152      0.52783  1.0000
  Si          0.25876      0.90403      0.21334  1.0000
  Ge          0.95769      0.11481      0.95945  1.0000
  Si          0.88764      0.85906      0.29746  1.0000
  Ge          0.15521      0.01821      0.61597  1.0000
  Si          0.03555      0.87287      0.45630  1.0000
  Ge          0.10764      0.14194      0.78883  1.0000
  Ge          0.86351      0.98307      0.13636  1.0000
  Si          0.13260      0.97541      0.35874  1.0000
  Ge          0.83685      0.87819      0.03329  1.0000
  Ge          0.02406      0.13209      0.68227  1.0000
  Ge          0.86388      0.00634      0.85858  1.0000
  Si          0.15065      0.11916      0.51686  1.0000
  Si          0.98283      0.85806      0.19985  1.0000
  O1          0.86930      0.98170      0.99044  1.0000
  O2          0.01050      0.93379      0.32815  1.0000
  O1          0.06012      0.03624      0.65334  1.0000
  O2          0.07724      0.99327      0.48715  1.0000
  O1          0.96558      0.04630      0.81392  1.0000
  O3          0.96084      0.94649      0.16625  1.0000
  O2          0.35614      0.58762      0.33084  1.0000
  O3          0.40787      0.73136      0.64886  1.0000
  O1          0.23977      0.67046      0.99999  1.0000
  O1          0.66194      0.40847      0.82430  1.0000
  O2          0.58556      0.22686      0.16615  1.0000
  O2          0.76699      0.34168      0.48480  1.0000
  O1          0.56966      0.31980      0.00091  1.0000
  O3          0.77558      0.41695      0.64766  1.0000
  O2          0.66372      0.24467      0.32597  1.0000
  O2          0.42498      0.65017      0.48771  1.0000
  O3          0.25279      0.58240      0.17382  1.0000
  O1          0.31495      0.74221      0.82529  1.0000
  O1          0.11442      0.19870      0.97534  1.0000
  O2          0.79776      0.92069      0.30346  1.0000
  O3          0.09543      0.85542      0.62062  1.0000
  O2          0.88258      0.78069      0.46129  1.0000
  O1          0.20226      0.07873      0.79690  1.0000
  O3          0.91422      0.14129      0.14410  1.0000
  O2          0.22363      0.12806      0.35357  1.0000
  O1          0.91982      0.80303      0.02445  1.0000
  O1          0.86260      0.05555      0.68196  1.0000
  O1          0.78213      0.84958      0.86141  1.0000
  O2          0.09073      0.20966      0.50756  1.0000
  O2          0.13261      0.90066      0.19486  1.0000
  O2          0.94388      0.88089      0.24819  1.0000
  O3          0.12639      0.06843      0.56601  1.0000
  O1          0.95258      0.08035      0.90496  1.0000
  O1          0.08456      0.15525      0.73405  1.0000
  O1          0.88072      0.95810      0.08234  1.0000
  O2          0.07732      0.92993      0.40741  1.0000
  O1          0.89877      0.21148      0.97217  1.0000
  O2          0.80412      0.70809      0.30768  1.0000
  O1          0.30978      0.09932      0.62763  1.0000
  O2          0.10370      0.79213      0.46721  1.0000
  O1          0.18216      0.29278      0.80907  1.0000
  O3          0.70364      0.89737      0.14998  1.0000
  O2          0.21434      0.90881      0.34722  1.0000
  O1          0.67923      0.76714      0.03049  1.0000
  O3          0.09291      0.28680      0.66289  1.0000
  O1          0.76932      0.07184      0.84964  1.0000
  O2          0.30290      0.20077      0.50664  1.0000
  O3          0.89859      0.71129      0.18883  1.0000
  O2          0.33731      0.65411      0.25257  1.0000
  O2          0.35218      0.66159      0.56574  1.0000
  O1          0.29113      0.64531      0.91152  1.0000
  O1          0.66530      0.35346      0.73362  1.0000
  O3          0.65270      0.34294      0.08925  1.0000
  O2          0.68067      0.32710      0.40572  1.0000
  O1          0.36646      0.30170      0.95646  1.0000
  O2          0.67929      0.05064      0.30085  1.0000
  O2          0.96670      0.61278      0.61834  1.0000
  O2          0.63405      0.66510      0.46101  1.0000
  O1          0.29349      0.92619      0.77975  1.0000
  O3          0.04724      0.38079      0.13820  1.0000
  O2          0.34123      0.37672      0.35427  1.0000
  O1          0.06053      0.69781      0.03007  1.0000
  O1          0.60836      0.94981      0.67521  1.0000
  O1          0.65362      0.61003      0.85204  1.0000
  O2          0.95897      0.32648      0.51050  1.0000
  O2          0.38142      0.03399      0.19409  1.0000
  O1          0.76806      0.29167      0.01723  1.0000
  O2          0.70263      0.47267      0.33514  1.0000
  O1          0.54732      0.21271      0.65625  1.0000
  O2          0.23388      0.68752      0.49447  1.0000
  O1          0.33049      0.53528      0.83396  1.0000
  O2          0.47825      0.77245      0.18018  1.0000
  O2          0.31871      0.77860      0.32155  1.0000
  O1          0.47213      0.71318      0.98006  1.0000
  O2          0.22112      0.51137      0.63487  1.0000
  O1          0.71122      0.22421      0.80127  1.0000
  O2          0.53747      0.30182      0.47715  1.0000
  O3          0.77585      0.45834      0.15984  1.0000
  O1          0.79036      0.53598      0.02229  1.0000
  O2          0.47244      0.25592      0.35187  1.0000
  O1          0.76837      0.21496      0.69387  1.0000
  O2          0.21428      0.45726      0.50986  1.0000
  O1          0.53304      0.76569      0.86548  1.0000
  O2          0.25915      0.78021      0.19519  1.0000
  O2          0.54779      0.79767      0.30464  1.0000
  O1          0.27257      0.46445      0.97857  1.0000
  O2          0.21986      0.73321      0.62062  1.0000
  O1          0.46097      0.19654      0.79654  1.0000
  O2          0.75250      0.53209      0.46085  1.0000
  O2          0.79859      0.26966      0.12761  1.0000
  O1          0.20872      0.33689      0.89759  1.0000
  O2          0.68856      0.91677      0.23159  1.0000
  O2          0.10475      0.75949      0.54848  1.0000
  O2          0.77305      0.67545      0.38946  1.0000
  O1          0.32263      0.11123      0.71555  1.0000
  O3          0.93640      0.24340      0.06616  1.0000
  O2          0.33299      0.23560      0.42484  1.0000
  O1          0.88887      0.67420      0.10182  1.0000
  O1          0.72932      0.02829      0.75894  1.0000
  O1          0.69015      0.74794      0.93825  1.0000
  O2          0.08507      0.30865      0.58059  1.0000
  O2          0.24402      0.90458      0.26627  1.0000
  O1          0.55608      0.53049      0.99418  1.0000
  O2          0.45154      0.03083      0.31943  1.0000
  O2          0.96508      0.39048      0.63526  1.0000
  O2          0.42363      0.43835      0.48032  1.0000
  O1          0.52311      0.96920      0.81549  1.0000
  O1          0.04092      0.60817      0.15740  1.0000
  O2          0.56792      0.59000      0.33519  1.0000
  O1          0.04222      0.44986      0.00499  1.0000
  O1          0.37177      0.93801      0.66544  1.0000
  O1          0.42040      0.36533      0.84654  1.0000
  O2          0.97883      0.55514      0.49374  1.0000
  O2          0.59889      0.02778      0.17570  1.0000
  O2          0.58920      0.16153      0.24668  1.0000
  O2          0.84032      0.41031      0.56487  1.0000
  O1          0.60382      0.41878      0.91456  1.0000
  O1          0.41135      0.80712      0.73765  1.0000
  O1          0.19317      0.60128      0.08584  1.0000
  O2          0.42916      0.57857      0.40867  1.0000
  F           0.46300      0.90683      0.24683  1.0000
  F           0.09875      0.53603      0.56462  1.0000
  F           0.47659      0.55906      0.91012  1.0000
  F           0.52281      0.08307      0.73070  1.0000
  F           0.94992      0.49139      0.07501  1.0000
  F           0.55538      0.45230      0.40591  1.0000
