data_cif

_audit_creation_method             'generated by GULP'

_symmetry_space_group_name_H-M     'P 1'
_symmetry_Int_Tables_number        1
_symmetry_cell_setting             triclinic

_cell_length_a                       12.1178
_cell_length_b                       12.1529
_cell_length_c                       30.2592
_cell_angle_alpha                   88.6255
_cell_angle_beta                    90.3211
_cell_angle_gamma                  119.4633

loop_
_atom_site_label
_atom_site_fract_x
_atom_site_fract_y
_atom_site_fract_z
_atom_site_occupancy
  Si          0.69960      0.37570      0.03389  1.0000
  Ge          0.60874      0.32099      0.37931  1.0000
  Si          0.65494      0.28953      0.71499  1.0000
  Ge          0.28966      0.64234      0.55936  1.0000
  Si          0.37031      0.67783      0.88047  1.0000
  Ge          0.29445      0.70202      0.20916  1.0000
  Ge          0.35807      0.70551      0.30969  1.0000
  Si          0.32076      0.60961      0.97827  1.0000
  Ge          0.28720      0.68996      0.65882  1.0000
  Si          0.60646      0.30038      0.81288  1.0000
  Ge          0.65740      0.37031      0.47884  1.0000
  Si          0.67444      0.31689      0.13479  1.0000
  Si          0.52573      0.41773      0.97170  1.0000
  Ge          0.56017      0.12546      0.30353  1.0000
  Si          0.86099      0.47036      0.64921  1.0000
  Ge          0.44931      0.58618      0.49255  1.0000
  Si          0.40826      0.89879      0.82248  1.0000
  Si          0.10114      0.51640      0.14266  1.0000
  Ge          0.40663      0.54885      0.38746  1.0000
  Si          0.10717      0.56795      0.04040  1.0000
  Si          0.45864      0.89268      0.72376  1.0000
  Si          0.57234      0.47771      0.87255  1.0000
  Ge          0.87071      0.43159      0.54628  1.0000
  Ge          0.49876      0.12178      0.20054  1.0000
  Si          0.29329      0.40590      0.86263  1.0000
  Ge          0.57029      0.90821      0.18202  1.0000
  Ge          0.09531      0.72361      0.53529  1.0000
  Ge          0.69491      0.61519      0.37423  1.0000
  Si          0.37795      0.09155      0.70445  1.0000
  Si          0.89700      0.29005      0.02211  1.0000
  Ge          0.38682      0.29597      0.50464  1.0000
  Si          0.88896      0.58981      0.15133  1.0000
  Si          0.68456      0.10374      0.83237  1.0000
  Si          0.59848      0.69147      0.98837  1.0000
  Si          0.08216      0.40719      0.66846  1.0000
  Ge          0.27526      0.91270      0.32280  1.0000
  Si          0.24753      0.33516      0.96098  1.0000
  Ge          0.63808      0.91662      0.28425  1.0000
  Ge          0.06450      0.75610      0.63909  1.0000
  Ge          0.73730      0.65481      0.47677  1.0000
  Si          0.32893      0.09561      0.80327  1.0000
  Ge          0.88821      0.26345      0.12038  1.0000
  Ge          0.32758      0.25582      0.40160  1.0000
  Si          0.91017      0.65416      0.05124  1.0000
  Si          0.73367      0.09009      0.73463  1.0000
  Si          0.65071      0.75190      0.88963  1.0000
  Ge          0.08667      0.35914      0.56868  1.0000
  Ge          0.21975      0.91426      0.22142  1.0000
  Si          0.96982      0.11770      0.97349  1.0000
  Ge          0.86504      0.85496      0.30713  1.0000
  Si          0.12616      0.02743      0.65705  1.0000
  Ge          0.01085      0.89308      0.48217  1.0000
  Si          0.11373      0.16070      0.81555  1.0000
  Ge          0.81961      0.97209      0.13220  1.0000
  Ge          0.09542      0.98160      0.37750  1.0000
  Si          0.84660      0.87039      0.03649  1.0000
  Si          0.01170      0.15782      0.71847  1.0000
  Si          0.86659      0.03137      0.87688  1.0000
  Ge          0.13314      0.12104      0.55498  1.0000
  Ge          0.93350      0.83310      0.20150  1.0000
  O2          0.92495      0.99486      0.00527  1.0000
  O1          0.99818      0.96291      0.33362  1.0000
  O2          0.05940      0.09187      0.68405  1.0000
  O1          0.05434      0.02364      0.51249  1.0000
  O2          0.98707      0.07933      0.84450  1.0000
  O1          0.85754      0.89722      0.17387  1.0000
  O1          0.32584      0.59124      0.35049  1.0000
  O3          0.40883      0.76689      0.69681  1.0000
  O2          0.23583      0.64279      0.01112  1.0000
  O2          0.64453      0.42742      0.84059  1.0000
  O3          0.54705      0.25127      0.16359  1.0000
  O1          0.75544      0.33496      0.51241  1.0000
  O2          0.58277      0.34371      0.00102  1.0000
  O2          0.73595      0.40724      0.68095  1.0000
  O1          0.64595      0.24989      0.33768  1.0000
  O1          0.42209      0.67890      0.52584  1.0000
  O3          0.21948      0.57237      0.17398  1.0000
  O2          0.33302      0.77228      0.85366  1.0000
  O2          0.12273      0.20603      0.97860  1.0000
  O1          0.77289      0.92497      0.30587  1.0000
  O3          0.05660      0.87864      0.66616  1.0000
  O1          0.86093      0.78613      0.49953  1.0000
  O2          0.20565      0.09995      0.82245  1.0000
  O1          0.89078      0.12666      0.14116  1.0000
  O1          0.19018      0.14190      0.37881  1.0000
  O2          0.90975      0.77902      0.03111  1.0000
  O2          0.85820      0.08602      0.71686  1.0000
  O2          0.77400      0.88026      0.87078  1.0000
  O1          0.07397      0.22101      0.55074  1.0000
  O1          0.09283      0.91895      0.19578  1.0000
  O1          0.88904      0.81792      0.25563  1.0000
  O3          0.10684      0.04510      0.60584  1.0000
  O2          0.92698      0.06309      0.92512  1.0000
  O2          0.06665      0.14849      0.76566  1.0000
  O3          0.85925      0.91853      0.08506  1.0000
  O1          0.01383      0.92782      0.42651  1.0000
  O2          0.90562      0.20407      0.98300  1.0000
  O1          0.80033      0.71333      0.33474  1.0000
  O2          0.27725      0.08875      0.66805  1.0000
  O1          0.10591      0.82940      0.49387  1.0000
  O2          0.19273      0.30963      0.82695  1.0000
  O1          0.65779      0.90921      0.13754  1.0000
  O1          0.18283      0.90962      0.36701  1.0000
  O2          0.69750      0.78687      0.02438  1.0000
  O2          0.06293      0.30477      0.70746  1.0000
  O2          0.78432      0.10216      0.86867  1.0000
  O1          0.29253      0.19670      0.54675  1.0000
  O3          0.88037      0.67567      0.18778  1.0000
  O1          0.27052      0.63975      0.26259  1.0000
  O1          0.36178      0.69114      0.61099  1.0000
  O2          0.31668      0.67073      0.93029  1.0000
  O2          0.65823      0.35107      0.76273  1.0000
  O2          0.63954      0.31970      0.08242  1.0000
  O1          0.68986      0.32953      0.42725  1.0000
  O2          0.37241      0.32793      0.97716  1.0000
  O1          0.62216      0.02743      0.31349  1.0000
  O3          0.93418      0.61923      0.65879  1.0000
  O1          0.61042      0.67723      0.48133  1.0000
  O2          0.32172      0.96764      0.82423  1.0000
  O3          0.03307      0.36612      0.14705  1.0000
  O1          0.35537      0.39360      0.37560  1.0000
  O2          0.03812      0.65418      0.03586  1.0000
  O2          0.61257      0.96078      0.71865  1.0000
  O2          0.65853      0.63186      0.87026  1.0000
  O1          0.94385      0.34214      0.55610  1.0000
  O1          0.34028      0.06533      0.21023  1.0000
  O2          0.77078      0.30403      0.01386  1.0000
  O1          0.65243      0.46726      0.35582  1.0000
  O2          0.51216      0.22007      0.69442  1.0000
  O1          0.24384      0.74141      0.53253  1.0000
  O2          0.29409      0.54000      0.85735  1.0000
  O1          0.44673      0.75776      0.19047  1.0000
  O1          0.30972      0.79645      0.33775  1.0000
  O2          0.46329      0.68394      0.99889  1.0000
  O3          0.19538      0.53968      0.68327  1.0000
  O2          0.68309      0.23615      0.83690  1.0000
  O1          0.51207      0.26862      0.50336  1.0000
  O2          0.75506      0.45970      0.15299  1.0000
  O2          0.79045      0.52769      0.03358  1.0000
  O1          0.44826      0.22577      0.38954  1.0000
  O2          0.73287      0.21242      0.71268  1.0000
  O1          0.21636      0.48219      0.54382  1.0000
  O2          0.52343      0.75060      0.87291  1.0000
  O1          0.22321      0.79059      0.19638  1.0000
  O1          0.51659      0.76729      0.29747  1.0000
  O2          0.24769      0.45569      0.98257  1.0000
  O1          0.20428      0.77050      0.65703  1.0000
  O2          0.45336      0.22101      0.81962  1.0000
  O1          0.73126      0.52411      0.50130  1.0000
  O3          0.74025      0.23130      0.14515  1.0000
  O2          0.22922      0.32838      0.90813  1.0000
  O1          0.66485      0.95175      0.22872  1.0000
  O1          0.06082      0.77818      0.58323  1.0000
  O1          0.78129      0.65766      0.42171  1.0000
  O2          0.30988      0.09181      0.75037  1.0000
  O3          0.88685      0.20893      0.06514  1.0000
  O1          0.29573      0.24640      0.45727  1.0000
  O2          0.90664      0.66397      0.10405  1.0000
  O2          0.75217      0.09564      0.78755  1.0000
  O2          0.66729      0.76345      0.94259  1.0000
  O3          0.11634      0.35684      0.62547  1.0000
  O1          0.18009      0.88471      0.27686  1.0000
  O2          0.58653      0.55375      0.99562  1.0000
  O1          0.40438      0.06225      0.31955  1.0000
  O2          0.95183      0.41177      0.66191  1.0000
  O1          0.42468      0.44672      0.51787  1.0000
  O2          0.54746      0.98360      0.84413  1.0000
  O2          0.00718      0.56728      0.16095  1.0000
  O1          0.56702      0.64011      0.37739  1.0000
  O2          0.02190      0.43016      0.01926  1.0000
  O2          0.39512      0.96890      0.69875  1.0000
  O2          0.43200      0.42516      0.85159  1.0000
  O1          0.97683      0.57567      0.52200  1.0000
  O1          0.51157      0.00874      0.17171  1.0000
  O1          0.58294      0.17590      0.24861  1.0000
  O3          0.81988      0.45135      0.59866  1.0000
  O2          0.57442      0.42136      0.92163  1.0000
  O2          0.40927      0.84614      0.77407  1.0000
  O2          0.14727      0.56358      0.09109  1.0000
  O1          0.37216      0.55943      0.44166  1.0000
  F           0.40830      0.89946      0.25630  1.0000
  F           0.12331      0.58243      0.59525  1.0000
  F           0.44494      0.54687      0.92689  1.0000
  F           0.53563      0.10004      0.76851  1.0000
  F           0.89125      0.40505      0.09338  1.0000
  F           0.55642      0.43828      0.44183  1.0000
