data_cif

_audit_creation_method             'generated by GULP'

_symmetry_space_group_name_H-M     'P 1'
_symmetry_Int_Tables_number        1
_symmetry_cell_setting             triclinic

_cell_length_a                       12.1791
_cell_length_b                       12.1809
_cell_length_c                       30.1833
_cell_angle_alpha                   91.1263
_cell_angle_beta                    90.2075
_cell_angle_gamma                  120.0437

loop_
_atom_site_label
_atom_site_fract_x
_atom_site_fract_y
_atom_site_fract_z
_atom_site_occupancy
  Ge          0.69960      0.37570      0.03389  1.0000
  Si          0.65165      0.34475      0.37783  1.0000
  Si          0.71375      0.32775      0.69656  1.0000
  Si          0.31032      0.63925      0.53185  1.0000
  Si          0.40815      0.71661      0.85391  1.0000
  Ge          0.33376      0.71035      0.20122  1.0000
  Ge          0.39185      0.69641      0.30192  1.0000
  Ge          0.34029      0.67530      0.95511  1.0000
  Si          0.32634      0.70652      0.63024  1.0000
  Si          0.65772      0.32652      0.79466  1.0000
  Si          0.69527      0.40418      0.47637  1.0000
  Ge          0.69775      0.32492      0.13357  1.0000
  Ge          0.56224      0.45448      0.96921  1.0000
  Ge          0.59490      0.12982      0.31282  1.0000
  Si          0.92467      0.50521      0.63652  1.0000
  Si          0.48168      0.59537      0.46968  1.0000
  Si          0.45428      0.92351      0.78995  1.0000
  Ge          0.12870      0.56059      0.12371  1.0000
  Si          0.43580      0.53354      0.36955  1.0000
  Ge          0.11548      0.60057      0.01921  1.0000
  Si          0.50835      0.92443      0.69063  1.0000
  Ge          0.61073      0.49009      0.86417  1.0000
  Si          0.91091      0.44297      0.53704  1.0000
  Ge          0.54384      0.13117      0.20911  1.0000
  Si          0.32685      0.43189      0.84577  1.0000
  Ge          0.62067      0.92101      0.18665  1.0000
  Si          0.11267      0.71745      0.52091  1.0000
  Si          0.71626      0.61297      0.36093  1.0000
  Si          0.43906      0.13108      0.67901  1.0000
  Ge          0.89627      0.30659      0.00469  1.0000
  Si          0.41702      0.32063      0.48503  1.0000
  Ge          0.90304      0.62123      0.13737  1.0000
  Si          0.73193      0.12634      0.80717  1.0000
  Ge          0.61258      0.73485      0.97025  1.0000
  Si          0.13038      0.43359      0.64686  1.0000
  Ge          0.31308      0.89942      0.32379  1.0000
  Ge          0.27389      0.38562      0.94635  1.0000
  Ge          0.67134      0.92253      0.28876  1.0000
  Si          0.12056      0.77963      0.61968  1.0000
  Si          0.76127      0.67844      0.45992  1.0000
  Si          0.38080      0.12501      0.77725  1.0000
  Ge          0.91532      0.26570      0.10839  1.0000
  Si          0.37204      0.26241      0.38595  1.0000
  Ge          0.89440      0.66559      0.03443  1.0000
  Si          0.78516      0.12118      0.70858  1.0000
  Ge          0.69044      0.78156      0.87259  1.0000
  Si          0.10839      0.36373      0.54839  1.0000
  Ge          0.25695      0.91675      0.22212  1.0000
  Ge          0.99184      0.14164      0.95877  1.0000
  Ge          0.89229      0.85914      0.30856  1.0000
  Si          0.18692      0.06132      0.63290  1.0000
  Si          0.03806      0.89476      0.47502  1.0000
  Si          0.16389      0.18696      0.79158  1.0000
  Ge          0.86841      0.98929      0.13128  1.0000
  Ge          0.14251      0.98008      0.37565  1.0000
  Ge          0.85973      0.90400      0.02589  1.0000
  Si          0.06480      0.18728      0.69401  1.0000
  Ge          0.91511      0.05550      0.85353  1.0000
  Si          0.17061      0.14661      0.53528  1.0000
  Ge          0.97573      0.86476      0.20189  1.0000
  O1          0.96669      0.03982      0.00030  1.0000
  O1          0.02423      0.95388      0.33987  1.0000
  O2          0.10900      0.10614      0.66403  1.0000
  O2          0.08467      0.01810      0.50708  1.0000
  O3          0.04920      0.10338      0.82255  1.0000
  O1          0.94171      0.96780      0.17647  1.0000
  O3          0.35708      0.56810      0.33617  1.0000
  O2          0.45500      0.79756      0.65906  1.0000
  O1          0.23370      0.70041      0.98411  1.0000
  O3          0.69145      0.44075      0.82862  1.0000
  O1          0.58926      0.25802      0.17518  1.0000
  O2          0.77924      0.36854      0.50858  1.0000
  O1          0.56543      0.34746      0.00310  1.0000
  O2          0.80156      0.45342      0.66798  1.0000
  O3          0.68964      0.25887      0.34795  1.0000
  O2          0.42786      0.67101      0.49901  1.0000
  O1          0.25171      0.59712      0.15929  1.0000
  O2          0.37501      0.79552      0.81822  1.0000
  O1          0.14609      0.25756      0.96808  1.0000
  O1          0.80572      0.93166      0.31227  1.0000
  O2          0.12593      0.90919      0.63801  1.0000
  O2          0.88534      0.80478      0.48038  1.0000
  O2          0.25666      0.12777      0.79475  1.0000
  O1          0.93946      0.15053      0.13030  1.0000
  O3          0.25504      0.13682      0.36554  1.0000
  O1          0.90396      0.79495      0.01043  1.0000
  O2          0.91182      0.12421      0.68930  1.0000
  O1          0.81435      0.89921      0.84337  1.0000
  O2          0.10749      0.23602      0.53042  1.0000
  O1          0.13613      0.92802      0.19754  1.0000
  O1          0.93987      0.84701      0.25673  1.0000
  O2          0.17005      0.10160      0.58454  1.0000
  O1          0.97163      0.07651      0.90668  1.0000
  O2          0.10674      0.17812      0.74311  1.0000
  O1          0.88884      0.92938      0.08295  1.0000
  O3          0.07480      0.95088      0.42718  1.0000
  O1          0.89758      0.20853      0.96320  1.0000
  O3          0.81013      0.70166      0.32416  1.0000
  O2          0.33789      0.12982      0.64311  1.0000
  O2          0.10585      0.81173      0.48482  1.0000
  O2          0.23844      0.33539      0.80608  1.0000
  O1          0.70953      0.92246      0.14233  1.0000
  O1          0.21137      0.89113      0.36565  1.0000
  O1          0.70810      0.85021      0.01239  1.0000
  O2          0.13262      0.33626      0.68261  1.0000
  O3          0.82962      0.13252      0.84442  1.0000
  O2          0.31711      0.22579      0.52084  1.0000
  O1          0.89326      0.71790      0.17776  1.0000
  O1          0.35238      0.63906      0.24769  1.0000
  O2          0.37412      0.70057      0.58025  1.0000
  O3          0.33489      0.70811      0.89902  1.0000
  O2          0.71307      0.38338      0.74602  1.0000
  O1          0.62579      0.33120      0.08539  1.0000
  O2          0.70231      0.34650      0.42798  1.0000
  O1          0.39915      0.36868      0.95695  1.0000
  O1          0.69347      0.07007      0.30040  1.0000
  O2          0.99292      0.66003      0.63927  1.0000
  O2          0.63564      0.68328      0.47493  1.0000
  O2          0.37114      0.99462      0.79455  1.0000
  O1          0.02491      0.40379      0.13412  1.0000
  O2          0.35890      0.37921      0.36738  1.0000
  O1          0.04512      0.68904      0.03067  1.0000
  O2          0.66291      0.99201      0.68875  1.0000
  O1          0.68814      0.64861      0.85285  1.0000
  O2          0.97610      0.35420      0.53198  1.0000
  O1          0.38678      0.03271      0.19586  1.0000
  O1          0.74418      0.27788      0.00588  1.0000
  O2          0.72213      0.48299      0.35528  1.0000
  O2          0.57310      0.26200      0.67299  1.0000
  O2          0.24204      0.71339      0.51096  1.0000
  O2          0.35804      0.57384      0.83355  1.0000
  O1          0.47069      0.80276      0.17261  1.0000
  O1          0.29325      0.74995      0.32096  1.0000
  O1          0.48745      0.76541      0.97781  1.0000
  O2          0.26327      0.56730      0.65280  1.0000
  O2          0.72961      0.25676      0.81546  1.0000
  O2          0.55217      0.32972      0.49615  1.0000
  O1          0.80161      0.47267      0.15617  1.0000
  O1          0.77730      0.53025      0.00994  1.0000
  O2          0.49745      0.26062      0.36836  1.0000
  O2          0.78629      0.24655      0.69135  1.0000
  O2          0.22884      0.48509      0.52746  1.0000
  O3          0.55828      0.79329      0.85790  1.0000
  O1          0.23124      0.76712      0.20971  1.0000
  O1          0.54857      0.79716      0.31448  1.0000
  O1          0.27773      0.51750      0.96900  1.0000
  O2          0.24637      0.77994      0.63697  1.0000
  O2          0.50284      0.24931      0.79831  1.0000
  O2          0.76298      0.55776      0.48035  1.0000
  O1          0.76527      0.23175      0.12272  1.0000
  O3          0.24394      0.38655      0.88936  1.0000
  O1          0.68018      0.88844      0.23350  1.0000
  O2          0.11465      0.79012      0.56661  1.0000
  O2          0.78183      0.69217      0.40693  1.0000
  O2          0.36620      0.12610      0.72418  1.0000
  O1          0.93564      0.25606      0.05251  1.0000
  O2          0.35178      0.24465      0.43911  1.0000
  O1          0.85482      0.66142      0.09023  1.0000
  O2          0.80091      0.11899      0.76178  1.0000
  O1          0.72310      0.81614      0.92790  1.0000
  O2          0.11770      0.35548      0.60137  1.0000
  O1          0.25492      0.94005      0.27849  1.0000
  O1          0.60710      0.60176      0.99306  1.0000
  O1          0.46413      0.01415      0.33899  1.0000
  O2          0.01115      0.45227      0.65799  1.0000
  O2          0.42618      0.45699      0.49136  1.0000
  O2          0.59348      0.00234      0.81379  1.0000
  O1          0.05585      0.64888      0.13364  1.0000
  O2          0.57820      0.59558      0.34948  1.0000
  O1          0.01084      0.45974      0.99252  1.0000
  O2          0.45445      0.00895      0.66847  1.0000
  O3          0.45155      0.42130      0.84952  1.0000
  O2          0.98940      0.57877      0.51306  1.0000
  O1          0.63800      0.06922      0.19391  1.0000
  O1          0.56158      0.17980      0.26406  1.0000
  O2          0.86783      0.44884      0.58733  1.0000
  O1          0.63408      0.46538      0.91758  1.0000
  O2          0.45520      0.87388      0.73971  1.0000
  O1          0.17275      0.57648      0.06866  1.0000
  O2          0.43394      0.59007      0.41898  1.0000
  F           0.45721      0.89665      0.25481  1.0000
  F           0.12263      0.57567      0.58332  1.0000
  F           0.50499      0.61523      0.92066  1.0000
  F           0.58554      0.13064      0.74338  1.0000
  F           0.86495      0.44259      0.06880  1.0000
  F           0.56888      0.46224      0.42121  1.0000
