data_cif

_audit_creation_method             'generated by GULP'

_symmetry_space_group_name_H-M     'P 1'
_symmetry_Int_Tables_number        1
_symmetry_cell_setting             triclinic

_cell_length_a                       12.2042
_cell_length_b                       12.1345
_cell_length_c                       30.1484
_cell_angle_alpha                   89.8210
_cell_angle_beta                    89.6118
_cell_angle_gamma                  119.8768

loop_
_atom_site_label
_atom_site_fract_x
_atom_site_fract_y
_atom_site_fract_z
_atom_site_occupancy
  Si          0.69960      0.37570      0.03389  1.0000
  Ge          0.63152      0.29692      0.37444  1.0000
  Si          0.66969      0.29294      0.71459  1.0000
  Ge          0.33000      0.63277      0.55232  1.0000
  Si          0.37560      0.66900      0.87673  1.0000
  Ge          0.31572      0.65808      0.20350  1.0000
  Ge          0.37564      0.67087      0.30403  1.0000
  Si          0.32167      0.60964      0.97542  1.0000
  Si          0.31199      0.67557      0.65340  1.0000
  Si          0.61213      0.28929      0.81302  1.0000
  Ge          0.68192      0.35418      0.47370  1.0000
  Si          0.67690      0.30011      0.13386  1.0000
  Si          0.52356      0.41232      0.97271  1.0000
  Ge          0.58021      0.09165      0.29985  1.0000
  Ge          0.88474      0.45292      0.64833  1.0000
  Ge          0.48689      0.57629      0.48461  1.0000
  Si          0.41668      0.88620      0.81587  1.0000
  Si          0.10263      0.50098      0.13979  1.0000
  Ge          0.43394      0.52595      0.38000  1.0000
  Si          0.10916      0.57132      0.03888  1.0000
  Si          0.47311      0.89247      0.71650  1.0000
  Si          0.57436      0.46650      0.87320  1.0000
  Ge          0.89149      0.40776      0.54223  1.0000
  Ge          0.52314      0.07844      0.19651  1.0000
  Si          0.29762      0.39334      0.86073  1.0000
  Ge          0.59649      0.86290      0.18535  1.0000
  Ge          0.11665      0.70330      0.53450  1.0000
  Ge          0.72174      0.59276      0.36502  1.0000
  Si          0.39532      0.09305      0.70111  1.0000
  Si          0.89694      0.29329      0.02182  1.0000
  Ge          0.41345      0.28506      0.50167  1.0000
  Ge          0.89217      0.56207      0.14302  1.0000
  Si          0.69171      0.09357      0.82798  1.0000
  Si          0.59679      0.68885      0.98750  1.0000
  Ge          0.10951      0.39102      0.66499  1.0000
  Ge          0.29292      0.87636      0.31736  1.0000
  Si          0.24846      0.33258      0.95960  1.0000
  Ge          0.65820      0.87930      0.28815  1.0000
  Si          0.09280      0.73883      0.63676  1.0000
  Ge          0.77043      0.64188      0.46791  1.0000
  Si          0.33586      0.08288      0.80014  1.0000
  Si          0.88674      0.22642      0.12143  1.0000
  Ge          0.35365      0.23384      0.39821  1.0000
  Si          0.91199      0.65772      0.04986  1.0000
  Si          0.74807      0.09157      0.72937  1.0000
  Si          0.65350      0.74307      0.88863  1.0000
  Ge          0.11057      0.35616      0.56488  1.0000
  Ge          0.23784      0.87108      0.21512  1.0000
  Si          0.96964      0.11689      0.97248  1.0000
  Ge          0.89139      0.83482      0.30231  1.0000
  Ge          0.14401      0.01582      0.65186  1.0000
  Ge          0.04265      0.87785      0.47968  1.0000
  Si          0.11844      0.14219      0.81435  1.0000
  Si          0.84297      0.94876      0.13244  1.0000
  Ge          0.12186      0.95508      0.37394  1.0000
  Si          0.84773      0.86834      0.03305  1.0000
  Si          0.02464      0.14137      0.71680  1.0000
  Si          0.87073      0.02286      0.87505  1.0000
  Ge          0.15591      0.11923      0.54894  1.0000
  Ge          0.95785      0.81713      0.19420  1.0000
  O2          0.92529      0.99232      0.00227  1.0000
  O1          0.02609      0.93560      0.32983  1.0000
  O3          0.05032      0.05300      0.68424  1.0000
  O1          0.08606      0.01552      0.50545  1.0000
  O2          0.99550      0.06479      0.84555  1.0000
  O3          0.93372      0.92363      0.16228  1.0000
  O1          0.34343      0.55723      0.34543  1.0000
  O2          0.42508      0.76718      0.68632  1.0000
  O2          0.23588      0.64350      0.00822  1.0000
  O2          0.64847      0.41431      0.84277  1.0000
  O3          0.55157      0.20108      0.15922  1.0000
  O1          0.77454      0.31602      0.50764  1.0000
  O2          0.57957      0.33971      0.00244  1.0000
  O3          0.75190      0.41025      0.68232  1.0000
  O1          0.66517      0.22079      0.33271  1.0000
  O1          0.45992      0.67366      0.51893  1.0000
  O3          0.22363      0.52948      0.16776  1.0000
  O2          0.34113      0.75909      0.84668  1.0000
  O2          0.12134      0.20621      0.97762  1.0000
  O1          0.78986      0.89169      0.31246  1.0000
  O3          0.09725      0.85755      0.66141  1.0000
  O1          0.89139      0.76897      0.49453  1.0000
  O2          0.21151      0.08336      0.82026  1.0000
  O2          0.87793      0.09675      0.13902  1.0000
  O1          0.21527      0.11588      0.37658  1.0000
  O2          0.90963      0.77804      0.02593  1.0000
  O2          0.87431      0.09350      0.71143  1.0000
  O2          0.77826      0.87045      0.87004  1.0000
  O1          0.10772      0.22315      0.54052  1.0000
  O1          0.11802      0.88019      0.18968  1.0000
  O1          0.91572      0.83768      0.24686  1.0000
  O1          0.11536      0.03518      0.59845  1.0000
  O2          0.92458      0.06516      0.92383  1.0000
  O2          0.06185      0.11873      0.76573  1.0000
  O2          0.86562      0.92362      0.08177  1.0000
  O1          0.04337      0.89644      0.42289  1.0000
  O2          0.90347      0.20005      0.98513  1.0000
  O1          0.82491      0.68357      0.32302  1.0000
  O3          0.30399      0.09900      0.66422  1.0000
  O1          0.13559      0.81499      0.49522  1.0000
  O2          0.19907      0.29357      0.82475  1.0000
  O3          0.69755      0.85976      0.14460  1.0000
  O1          0.20629      0.88091      0.36201  1.0000
  O2          0.69740      0.78671      0.02320  1.0000
  O3          0.10630      0.28886      0.70722  1.0000
  O2          0.79091      0.09276      0.86378  1.0000
  O1          0.31769      0.19050      0.54394  1.0000
  O1          0.88119      0.66129      0.18358  1.0000
  O1          0.29142      0.59578      0.25671  1.0000
  O3          0.37649      0.66776      0.60779  1.0000
  O2          0.32067      0.66751      0.92652  1.0000
  O2          0.66930      0.34682      0.76406  1.0000
  O2          0.64326      0.31599      0.08239  1.0000
  O1          0.71258      0.30793      0.42215  1.0000
  O2          0.36996      0.32411      0.97746  1.0000
  O1          0.63736      0.99280      0.31423  1.0000
  O3          0.97325      0.61613      0.65681  1.0000
  O1          0.64603      0.66815      0.47353  1.0000
  O2          0.32961      0.95358      0.81861  1.0000
  O2          0.01666      0.34484      0.13891  1.0000
  O1          0.38362      0.36847      0.37019  1.0000
  O2          0.04206      0.65822      0.03499  1.0000
  O2          0.62650      0.96150      0.71178  1.0000
  O2          0.66117      0.62114      0.87017  1.0000
  O1          0.96337      0.31722      0.54710  1.0000
  O1          0.36660      0.02034      0.20785  1.0000
  O2          0.77182      0.30430      0.01360  1.0000
  O1          0.67880      0.44136      0.34914  1.0000
  O2          0.52834      0.22357      0.69374  1.0000
  O1          0.26532      0.72136      0.53462  1.0000
  O2          0.29950      0.52774      0.85457  1.0000
  O1          0.46896      0.71153      0.18592  1.0000
  O1          0.32225      0.75798      0.33266  1.0000
  O2          0.46306      0.68480      0.99674  1.0000
  O3          0.23730      0.53917      0.67753  1.0000
  O2          0.68716      0.22380      0.83582  1.0000
  O1          0.53705      0.25697      0.49942  1.0000
  O3          0.73943      0.43237      0.15850  1.0000
  O2          0.78904      0.52840      0.03210  1.0000
  O1          0.47187      0.20087      0.38562  1.0000
  O2          0.74659      0.21472      0.70953  1.0000
  O1          0.24767      0.47413      0.53905  1.0000
  O2          0.52852      0.74143      0.87061  1.0000
  O1          0.25740      0.75616      0.18963  1.0000
  O1          0.53603      0.72854      0.29910  1.0000
  O2          0.24728      0.45519      0.97981  1.0000
  O2          0.22201      0.73613      0.64570  1.0000
  O2          0.45899      0.20805      0.81840  1.0000
  O1          0.76286      0.51222      0.49301  1.0000
  O2          0.76340      0.22990      0.13922  1.0000
  O2          0.23204      0.31924      0.90656  1.0000
  O1          0.68808      0.90502      0.23192  1.0000
  O3          0.08045      0.75218      0.58420  1.0000
  O1          0.81052      0.64429      0.41227  1.0000
  O2          0.31954      0.08457      0.74694  1.0000
  O2          0.88807      0.22303      0.06796  1.0000
  O1          0.32358      0.23303      0.45386  1.0000
  O3          0.90807      0.67834      0.10132  1.0000
  O2          0.76188      0.09200      0.78260  1.0000
  O2          0.66792      0.75803      0.94172  1.0000
  O1          0.12951      0.31878      0.61983  1.0000
  O1          0.19893      0.83843      0.27080  1.0000
  O2          0.58171      0.55038      0.99618  1.0000
  O1          0.42217      0.02632      0.31221  1.0000
  O1          0.96573      0.38312      0.66892  1.0000
  O1          0.46027      0.44147      0.51286  1.0000
  O2          0.55523      0.96996      0.83798  1.0000
  O3          0.02873      0.56206      0.16432  1.0000
  O1          0.59407      0.61578      0.36923  1.0000
  O2          0.01929      0.43223      0.01789  1.0000
  O2          0.41066      0.96929      0.69338  1.0000
  O2          0.43610      0.41204      0.85091  1.0000
  O1          0.00188      0.55602      0.51971  1.0000
  O1          0.55142      0.97030      0.16983  1.0000
  O1          0.60918      0.13512      0.24438  1.0000
  O1          0.83687      0.42208      0.59476  1.0000
  O2          0.57324      0.41300      0.92275  1.0000
  O2          0.42058      0.83759      0.76610  1.0000
  O2          0.14844      0.56035      0.08914  1.0000
  O1          0.40621      0.54580      0.43519  1.0000
  F           0.43690      0.84813      0.25363  1.0000
  F           0.11184      0.51228      0.59544  1.0000
  F           0.44604      0.54060      0.92553  1.0000
  F           0.54495      0.09339      0.76480  1.0000
  F           0.89473      0.46274      0.09664  1.0000
  F           0.58420      0.42171      0.43558  1.0000
