data_cif

_audit_creation_method             'generated by GULP'

_symmetry_space_group_name_H-M     'P 1'
_symmetry_Int_Tables_number        1
_symmetry_cell_setting             triclinic

_cell_length_a                       11.9351
_cell_length_b                       11.9629
_cell_length_c                       29.4869
_cell_angle_alpha                   90.1952
_cell_angle_beta                    90.4326
_cell_angle_gamma                  119.5439

loop_
_atom_site_label
_atom_site_fract_x
_atom_site_fract_y
_atom_site_fract_z
_atom_site_occupancy
  Si          0.69960      0.37570      0.03389  1.0000
  Si          0.62058      0.32555      0.36647  1.0000
  Si          0.66860      0.27762      0.70177  1.0000
  Si          0.30664      0.60798      0.53322  1.0000
  Ge          0.38295      0.65590      0.87136  1.0000
  Si          0.31875      0.70049      0.19994  1.0000
  Si          0.37802      0.70434      0.30042  1.0000
  Si          0.31380      0.62089      0.96922  1.0000
  Si          0.29014      0.65399      0.63595  1.0000
  Si          0.61504      0.27936      0.80195  1.0000
  Si          0.68752      0.37068      0.46922  1.0000
  Si          0.69424      0.31885      0.13410  1.0000
  Si          0.52725      0.41293      0.96763  1.0000
  Si          0.57875      0.11558      0.29933  1.0000
  Si          0.86827      0.44575      0.63398  1.0000
  Ge          0.48000      0.56132      0.46750  1.0000
  Si          0.41277      0.86559      0.80449  1.0000
  Si          0.10420      0.52211      0.13763  1.0000
  Si          0.40926      0.53518      0.36888  1.0000
  Si          0.10603      0.57494      0.03632  1.0000
  Si          0.46234      0.86580      0.70210  1.0000
  Si          0.57982      0.45984      0.86464  1.0000
  Ge          0.90946      0.41866      0.53529  1.0000
  Si          0.52155      0.10975      0.19787  1.0000
  Si          0.29171      0.38397      0.84845  1.0000
  Si          0.59427      0.90091      0.18433  1.0000
  Si          0.10331      0.69010      0.51436  1.0000
  Si          0.69584      0.60684      0.35447  1.0000
  Si          0.39167      0.07572      0.68714  1.0000
  Si          0.89978      0.29609      0.01980  1.0000
  Si          0.40341      0.28866      0.48796  1.0000
  Si          0.89484      0.59552      0.15036  1.0000
  Si          0.69326      0.07899      0.81655  1.0000
  Si          0.59865      0.69856      0.98060  1.0000
  Si          0.08486      0.37396      0.64831  1.0000
  Si          0.30068      0.90698      0.31399  1.0000
  Si          0.24565      0.33590      0.95163  1.0000
  Si          0.65702      0.91357      0.28491  1.0000
  Si          0.07539      0.72516      0.61711  1.0000
  Si          0.75868      0.65875      0.45695  1.0000
  Si          0.33655      0.06918      0.78740  1.0000
  Si          0.90378      0.24516      0.12069  1.0000
  Si          0.33623      0.25437      0.38518  1.0000
  Si          0.90529      0.65496      0.04981  1.0000
  Si          0.74068      0.06812      0.71596  1.0000
  Si          0.66515      0.74520      0.87835  1.0000
  Si          0.09199      0.32131      0.54578  1.0000
  Si          0.24488      0.90900      0.21347  1.0000
  Si          0.96987      0.11715      0.96863  1.0000
  Si          0.87565      0.85185      0.30194  1.0000
  Si          0.14319      0.00578      0.63502  1.0000
  Si          0.04305      0.87375      0.46670  1.0000
  Si          0.11793      0.12992      0.79997  1.0000
  Si          0.84078      0.96542      0.13469  1.0000
  Si          0.12196      0.97443      0.36636  1.0000
  Si          0.84683      0.87558      0.03341  1.0000
  Si          0.01872      0.12655      0.69938  1.0000
  Si          0.88197      0.01948      0.86724  1.0000
  Si          0.16127      0.10510      0.53454  1.0000
  Si          0.96285      0.84386      0.20062  1.0000
  O2          0.93046      0.99718      0.00170  1.0000
  O2          0.99895      0.93501      0.33387  1.0000
  O2          0.05949      0.04669      0.66621  1.0000
  O2          0.07751      0.99146      0.49985  1.0000
  O2          0.00207      0.06184      0.83481  1.0000
  O2          0.91790      0.92160      0.16810  1.0000
  O2          0.33788      0.58033      0.33184  1.0000
  O2          0.40941      0.73837      0.67005  1.0000
  O2          0.23449      0.65249      0.00657  1.0000
  O2          0.65361      0.40432      0.83426  1.0000
  O2          0.56964      0.23419      0.16536  1.0000
  O3          0.77400      0.33343      0.49778  1.0000
  O2          0.57684      0.33842      0.00046  1.0000
  O2          0.75313      0.40233      0.67063  1.0000
  O2          0.65443      0.24206      0.33147  1.0000
  O3          0.42929      0.64574      0.50460  1.0000
  O2          0.23136      0.57276      0.16948  1.0000
  O3          0.33834      0.74710      0.83612  1.0000
  O2          0.12368      0.21160      0.97345  1.0000
  O2          0.78543      0.91699      0.30520  1.0000
  O2          0.07950      0.85189      0.63895  1.0000
  O2          0.89349      0.77593      0.47464  1.0000
  O2          0.20758      0.06564      0.80681  1.0000
  O2          0.90398      0.11916      0.14070  1.0000
  O2          0.21207      0.12851      0.36363  1.0000
  O2          0.90817      0.78225      0.02950  1.0000
  O2          0.86456      0.06427      0.69529  1.0000
  O2          0.80225      0.86496      0.86314  1.0000
  O2          0.11003      0.20454      0.52759  1.0000
  O2          0.11636      0.90690      0.19385  1.0000
  O2          0.92635      0.85729      0.25152  1.0000
  O2          0.13579      0.04791      0.58446  1.0000
  O2          0.93293      0.06418      0.91807  1.0000
  O2          0.06086      0.11258      0.74970  1.0000
  O2          0.85568      0.92708      0.08404  1.0000
  O2          0.07011      0.92685      0.41604  1.0000
  O2          0.89856      0.19788      0.98132  1.0000
  O2          0.79217      0.70301      0.31619  1.0000
  O2          0.29328      0.07539      0.64887  1.0000
  O2          0.12509      0.80317      0.47845  1.0000
  O2          0.20188      0.28114      0.81037  1.0000
  O2          0.68912      0.89751      0.14567  1.0000
  O2          0.20395      0.90625      0.35221  1.0000
  O2          0.69661      0.79547      0.01909  1.0000
  O2          0.08532      0.27703      0.68673  1.0000
  O2          0.79361      0.08227      0.85492  1.0000
  O2          0.31313      0.17477      0.52321  1.0000
  O2          0.89315      0.69218      0.18879  1.0000
  O2          0.32060      0.64688      0.25024  1.0000
  O2          0.34445      0.65064      0.58650  1.0000
  O3          0.30636      0.67595      0.92140  1.0000
  O2          0.66830      0.33650      0.75179  1.0000
  O2          0.63874      0.31791      0.08327  1.0000
  O2          0.68013      0.32766      0.41574  1.0000
  O2          0.37180      0.33064      0.96924  1.0000
  O2          0.66619      0.04624      0.30284  1.0000
  O2          0.94358      0.60398      0.63484  1.0000
  O3          0.64649      0.67767      0.47695  1.0000
  O2          0.32685      0.93792      0.80503  1.0000
  O2          0.03564      0.36634      0.13994  1.0000
  O2          0.32643      0.37708      0.36730  1.0000
  O2          0.03668      0.66224      0.03203  1.0000
  O2          0.61811      0.93642      0.69735  1.0000
  O2          0.66779      0.61491      0.86317  1.0000
  O3          0.96035      0.30227      0.52569  1.0000
  O2          0.36517      0.04105      0.19483  1.0000
  O2          0.76755      0.30033      0.01119  1.0000
  O2          0.68888      0.46971      0.34618  1.0000
  O2          0.52573      0.20722      0.67837  1.0000
  O2          0.23675      0.68626      0.51405  1.0000
  O3          0.28586      0.51052      0.83957  1.0000
  O2          0.46061      0.76702      0.17707  1.0000
  O2          0.30520      0.77579      0.32235  1.0000
  O2          0.46344      0.69536      0.98814  1.0000
  O2          0.21536      0.50991      0.65641  1.0000
  O2          0.69415      0.21416      0.82397  1.0000
  O2          0.54059      0.29227      0.48805  1.0000
  O2          0.76094      0.46207      0.15655  1.0000
  O2          0.77802      0.53142      0.02955  1.0000
  O2          0.46589      0.26155      0.36614  1.0000
  O2          0.74451      0.19640      0.69700  1.0000
  O2          0.21234      0.45388      0.52823  1.0000
  O3          0.55075      0.75499      0.85585  1.0000
  O2          0.24425      0.78250      0.19390  1.0000
  O2          0.53416      0.78741      0.30463  1.0000
  O2          0.24983      0.46419      0.97020  1.0000
  O2          0.19814      0.71716      0.63599  1.0000
  O2          0.45967      0.19705      0.80787  1.0000
  O2          0.74661      0.52507      0.47415  1.0000
  O2          0.77749      0.24557      0.13952  1.0000
  O2          0.22997      0.31899      0.89736  1.0000
  O2          0.67201      0.90867      0.23058  1.0000
  O2          0.08073      0.74385      0.56299  1.0000
  O2          0.76586      0.67123      0.40173  1.0000
  O2          0.31923      0.07570      0.73324  1.0000
  O2          0.90253      0.22608      0.06634  1.0000
  O2          0.32589      0.23621      0.43919  1.0000
  O2          0.90198      0.67145      0.10411  1.0000
  O2          0.76152      0.07063      0.77029  1.0000
  O2          0.66764      0.76139      0.93356  1.0000
  O2          0.08900      0.30906      0.60098  1.0000
  O2          0.22767      0.90834      0.26769  1.0000
  O2          0.57911      0.55637      0.98718  1.0000
  O2          0.43840      0.03448      0.32230  1.0000
  O2          0.96082      0.39154      0.65406  1.0000
  O3          0.41121      0.41932      0.50245  1.0000
  O2          0.55523      0.95753      0.82660  1.0000
  O2          0.01839      0.57817      0.16030  1.0000
  O2          0.55469      0.59041      0.34854  1.0000
  O2          0.02580      0.43450      0.01214  1.0000
  O2          0.40132      0.94713      0.67913  1.0000
  O2          0.43803      0.40862      0.84324  1.0000
  O3          0.98024      0.56016      0.49998  1.0000
  O2          0.57879      0.02535      0.17472  1.0000
  O2          0.57712      0.16626      0.24836  1.0000
  O3          0.81056      0.39353      0.58502  1.0000
  O2          0.57514      0.41288      0.91660  1.0000
  O2          0.41634      0.81594      0.75298  1.0000
  O2          0.15707      0.57479      0.08732  1.0000
  O3          0.40441      0.58741      0.41758  1.0000
  F           0.44859      0.90636      0.24872  1.0000
  F           0.05017      0.50767      0.57389  1.0000
  F           0.43760      0.56606      0.90804  1.0000
  F           0.54452      0.08145      0.75125  1.0000
  F           0.89594      0.44626      0.08428  1.0000
  F           0.53025      0.47243      0.42842  1.0000
