data_cif

_audit_creation_method             'generated by GULP'

_symmetry_space_group_name_H-M     'P 1'
_symmetry_Int_Tables_number        1
_symmetry_cell_setting             triclinic

_cell_length_a                       11.9881
_cell_length_b                       11.9802
_cell_length_c                       29.4864
_cell_angle_alpha                   90.7771
_cell_angle_beta                    89.7281
_cell_angle_gamma                  120.1370

loop_
_atom_site_label
_atom_site_fract_x
_atom_site_fract_y
_atom_site_fract_z
_atom_site_occupancy
  Si          0.69960      0.37570      0.03389  1.0000
  Si          0.61485      0.32292      0.36488  1.0000
  Si          0.65475      0.28539      0.70027  1.0000
  Si          0.28994      0.61444      0.53203  1.0000
  Si          0.36678      0.67147      0.86461  1.0000
  Ge          0.32780      0.71846      0.20323  1.0000
  Si          0.36635      0.68819      0.30135  1.0000
  Si          0.31819      0.61620      0.96680  1.0000
  Si          0.27593      0.66495      0.63417  1.0000
  Si          0.60472      0.29684      0.80188  1.0000
  Si          0.67893      0.37232      0.46611  1.0000
  Si          0.70188      0.32409      0.13386  1.0000
  Si          0.52754      0.40428      0.96721  1.0000
  Si          0.57537      0.11046      0.29905  1.0000
  Si          0.85451      0.45323      0.63194  1.0000
  Si          0.47007      0.57796      0.47006  1.0000
  Si          0.39976      0.88246      0.80173  1.0000
  Si          0.11723      0.53664      0.13534  1.0000
  Si          0.41448      0.52885      0.36894  1.0000
  Si          0.10880      0.57975      0.03295  1.0000
  Si          0.44708      0.87670      0.70074  1.0000
  Ge          0.55677      0.46814      0.86839  1.0000
  Ge          0.89572      0.42220      0.53319  1.0000
  Si          0.52322      0.10998      0.19606  1.0000
  Si          0.28437      0.38782      0.84548  1.0000
  Si          0.59941      0.89903      0.17967  1.0000
  Si          0.08969      0.69500      0.51148  1.0000
  Si          0.69291      0.60121      0.35172  1.0000
  Si          0.37601      0.08315      0.68611  1.0000
  Si          0.89991      0.29933      0.01813  1.0000
  Si          0.39939      0.29703      0.48136  1.0000
  Si          0.90241      0.60330      0.14744  1.0000
  Si          0.68065      0.09292      0.81478  1.0000
  Si          0.59981      0.69224      0.98041  1.0000
  Si          0.06978      0.38251      0.64615  1.0000
  Si          0.28974      0.89592      0.31223  1.0000
  Si          0.24735      0.33067      0.94853  1.0000
  Si          0.65106      0.90553      0.28287  1.0000
  Si          0.06225      0.73408      0.61446  1.0000
  Si          0.74737      0.65442      0.45281  1.0000
  Si          0.32225      0.08277      0.78696  1.0000
  Si          0.91299      0.25613      0.11853  1.0000
  Si          0.33504      0.24965      0.38097  1.0000
  Si          0.90782      0.65767      0.04678  1.0000
  Si          0.72639      0.07644      0.71415  1.0000
  Si          0.65495      0.74746      0.87814  1.0000
  Si          0.07700      0.32558      0.54397  1.0000
  Si          0.23789      0.91018      0.21002  1.0000
  Si          0.96572      0.11878      0.96491  1.0000
  Si          0.86924      0.84750      0.29925  1.0000
  Si          0.13178      0.01653      0.63183  1.0000
  Si          0.02810      0.87705      0.46410  1.0000
  Si          0.10053      0.14194      0.79684  1.0000
  Si          0.85223      0.97789      0.13042  1.0000
  Si          0.11408      0.97074      0.36343  1.0000
  Si          0.84945      0.87716      0.02998  1.0000
  Si          0.00478      0.13553      0.69621  1.0000
  Si          0.86475      0.03206      0.86390  1.0000
  Si          0.15342      0.11608      0.53094  1.0000
  Si          0.96246      0.85239      0.19777  1.0000
  O2          0.92400      0.99261      0.99476  1.0000
  O2          0.99472      0.93258      0.32996  1.0000
  O2          0.04442      0.05778      0.66107  1.0000
  O2          0.07096      0.99916      0.49662  1.0000
  O2          0.97765      0.06389      0.82844  1.0000
  O2          0.92184      0.92916      0.16419  1.0000
  O2          0.33653      0.58022      0.33909  1.0000
  O2          0.39410      0.74830      0.66835  1.0000
  O2          0.23481      0.65325      0.00015  1.0000
  O3          0.64356      0.41789      0.83251  1.0000
  O2          0.57770      0.23858      0.16596  1.0000
  O3          0.76152      0.33474      0.49610  1.0000
  O2          0.57109      0.33356      0.00383  1.0000
  O2          0.73938      0.41002      0.66868  1.0000
  O2          0.65083      0.23643      0.33113  1.0000
  O2          0.41948      0.65291      0.50341  1.0000
  O3          0.23680      0.58267      0.16704  1.0000
  O2          0.32657      0.75778      0.83464  1.0000
  O2          0.12031      0.20877      0.96975  1.0000
  O2          0.77592      0.90798      0.30472  1.0000
  O2          0.06573      0.86163      0.63541  1.0000
  O2          0.87591      0.78068      0.47242  1.0000
  O2          0.19543      0.08493      0.80574  1.0000
  O2          0.91745      0.13162      0.13768  1.0000
  O2          0.20722      0.12476      0.36023  1.0000
  O2          0.91117      0.78471      0.02618  1.0000
  O2          0.85026      0.07215      0.69336  1.0000
  O2          0.77262      0.87949      0.85945  1.0000
  O2          0.09458      0.20880      0.52553  1.0000
  O2          0.11745      0.92705      0.19465  1.0000
  O2          0.91430      0.85815      0.24783  1.0000
  O2          0.13396      0.05932      0.58078  1.0000
  O2          0.92602      0.07463      0.91343  1.0000
  O2          0.05295      0.12282      0.74525  1.0000
  O2          0.86840      0.93957      0.07957  1.0000
  O2          0.05671      0.92610      0.41303  1.0000
  O2          0.89688      0.19907      0.97986  1.0000
  O2          0.79071      0.69774      0.31337  1.0000
  O2          0.27928      0.08510      0.64828  1.0000
  O2          0.10866      0.80583      0.47565  1.0000
  O2          0.17291      0.29415      0.80930  1.0000
  O2          0.70107      0.91100      0.14120  1.0000
  O2          0.19482      0.90010      0.35064  1.0000
  O2          0.69681      0.79103      0.01892  1.0000
  O2          0.07014      0.28712      0.68457  1.0000
  O2          0.78193      0.10082      0.85311  1.0000
  O2          0.30553      0.19675      0.51977  1.0000
  O2          0.90030      0.70143      0.18548  1.0000
  O3          0.30936      0.62451      0.25330  1.0000
  O2          0.33171      0.66356      0.58411  1.0000
  O2          0.31913      0.66953      0.91649  1.0000
  O2          0.65323      0.34254      0.74995  1.0000
  O2          0.64257      0.31821      0.08379  1.0000
  O2          0.67544      0.32284      0.41367  1.0000
  O2          0.36881      0.32073      0.96687  1.0000
  O2          0.65798      0.03749      0.30043  1.0000
  O2          0.92956      0.61210      0.63200  1.0000
  O2          0.62634      0.66670      0.47214  1.0000
  O2          0.31022      0.94892      0.80483  1.0000
  O2          0.04531      0.37879      0.13558  1.0000
  O2          0.32608      0.37265      0.36338  1.0000
  O2          0.03899      0.66544      0.02788  1.0000
  O2          0.60277      0.94368      0.69547  1.0000
  O3          0.67235      0.63466      0.85814  1.0000
  O3          0.94763      0.30677      0.52332  1.0000
  O2          0.36756      0.04198      0.19423  1.0000
  O2          0.76764      0.30190      0.00968  1.0000
  O2          0.68728      0.46488      0.34188  1.0000
  O2          0.51196      0.21356      0.67718  1.0000
  O2          0.22407      0.69118      0.51042  1.0000
  O2          0.28936      0.52639      0.84367  1.0000
  O3          0.47250      0.76634      0.17097  1.0000
  O2          0.29230      0.76422      0.31980  1.0000
  O2          0.46385      0.68870      0.98665  1.0000
  O2          0.20134      0.51938      0.65334  1.0000
  O2          0.68068      0.22602      0.82123  1.0000
  O2          0.53225      0.29636      0.48636  1.0000
  O2          0.76792      0.46912      0.15525  1.0000
  O2          0.77864      0.53222      0.02800  1.0000
  O2          0.45834      0.24550      0.36054  1.0000
  O2          0.72966      0.20385      0.69519  1.0000
  O2          0.20153      0.45990      0.52751  1.0000
  O2          0.52115      0.73733      0.86090  1.0000
  O3          0.22641      0.78487      0.18781  1.0000
  O2          0.52324      0.78206      0.30136  1.0000
  O2          0.25589      0.46191      0.96697  1.0000
  O2          0.18368      0.72658      0.63382  1.0000
  O2          0.44827      0.20580      0.80733  1.0000
  O2          0.74534      0.52893      0.47190  1.0000
  O2          0.78631      0.25315      0.13935  1.0000
  O2          0.22929      0.31652      0.89428  1.0000
  O2          0.66671      0.90511      0.22851  1.0000
  O2          0.07011      0.75059      0.56025  1.0000
  O2          0.76530      0.67228      0.39843  1.0000
  O2          0.30500      0.08395      0.73267  1.0000
  O2          0.90314      0.23008      0.06433  1.0000
  O2          0.31922      0.22940      0.43515  1.0000
  O2          0.90761      0.67722      0.10106  1.0000
  O2          0.74744      0.08078      0.76833  1.0000
  O2          0.66726      0.75858      0.93325  1.0000
  O2          0.07212      0.31437      0.59903  1.0000
  O2          0.22456      0.89992      0.26519  1.0000
  O2          0.57979      0.55077      0.98711  1.0000
  O2          0.43248      0.01844      0.31869  1.0000
  O2          0.94711      0.40110      0.65211  1.0000
  O2          0.41428      0.43669      0.49234  1.0000
  O2          0.54151      0.96718      0.82467  1.0000
  O2          0.02471      0.58702      0.15691  1.0000
  O2          0.55473      0.59151      0.34433  1.0000
  O2          0.02843      0.43714      0.00966  1.0000
  O2          0.38326      0.95332      0.67702  1.0000
  O3          0.41530      0.39601      0.83224  1.0000
  O3          0.96807      0.56319      0.49751  1.0000
  O2          0.57478      0.02023      0.17418  1.0000
  O2          0.57229      0.15448      0.24777  1.0000
  O3          0.79765      0.39842      0.58308  1.0000
  O3          0.58127      0.39831      0.91867  1.0000
  O2          0.39593      0.82219      0.75141  1.0000
  O2          0.16340      0.58676      0.08343  1.0000
  O2          0.41341      0.57957      0.42025  1.0000
  F           0.41928      0.86473      0.23922  1.0000
  F           0.03792      0.51398      0.57125  1.0000
  F           0.46614      0.52238      0.90555  1.0000
  F           0.52340      0.07622      0.74870  1.0000
  F           0.89752      0.45019      0.08115  1.0000
  F           0.54067      0.45087      0.41481  1.0000
