data_cif

_audit_creation_method             'generated by GULP'

_symmetry_space_group_name_H-M     'P 1'
_symmetry_Int_Tables_number        1
_symmetry_cell_setting             triclinic

_cell_length_a                       12.1289
_cell_length_b                       12.1328
_cell_length_c                       30.0960
_cell_angle_alpha                   91.5255
_cell_angle_beta                    87.7100
_cell_angle_gamma                  119.1400

loop_
_atom_site_label
_atom_site_fract_x
_atom_site_fract_y
_atom_site_fract_z
_atom_site_occupancy
  Ge          0.69960      0.37570      0.03389  1.0000
  Ge          0.67535      0.34279      0.37530  1.0000
  Si          0.71520      0.31615      0.69454  1.0000
  Si          0.32173      0.62421      0.52599  1.0000
  Si          0.40333      0.69113      0.84833  1.0000
  Ge          0.34833      0.69546      0.19507  1.0000
  Ge          0.39556      0.67810      0.29588  1.0000
  Ge          0.35151      0.64206      0.94768  1.0000
  Si          0.33811      0.69745      0.62395  1.0000
  Si          0.63926      0.29447      0.79292  1.0000
  Si          0.71604      0.38498      0.47340  1.0000
  Ge          0.71564      0.33031      0.13432  1.0000
  Ge          0.54013      0.42330      0.96437  1.0000
  Ge          0.59524      0.11737      0.31340  1.0000
  Si          0.93464      0.50076      0.63656  1.0000
  Si          0.49150      0.57600      0.45963  1.0000
  Si          0.44874      0.89627      0.78280  1.0000
  Ge          0.14756      0.54700      0.12040  1.0000
  Si          0.45753      0.51976      0.35801  1.0000
  Ge          0.13293      0.57868      0.01505  1.0000
  Si          0.51806      0.91227      0.68302  1.0000
  Si          0.60243      0.46913      0.86051  1.0000
  Si          0.92224      0.43395      0.53731  1.0000
  Ge          0.56309      0.12288      0.20804  1.0000
  Si          0.32065      0.40647      0.84429  1.0000
  Ge          0.63810      0.90655      0.18683  1.0000
  Si          0.12395      0.70407      0.51605  1.0000
  Ge          0.75306      0.60871      0.34902  1.0000
  Si          0.44689      0.11993      0.67506  1.0000
  Ge          0.90284      0.29443      0.01078  1.0000
  Si          0.43064      0.29790      0.47523  1.0000
  Ge          0.92764      0.61496      0.14437  1.0000
  Si          0.71977      0.09653      0.80131  1.0000
  Ge          0.61570      0.71980      0.97646  1.0000
  Si          0.14097      0.42790      0.64490  1.0000
  Ge          0.31742      0.87752      0.32109  1.0000
  Ge          0.25516      0.35328      0.94619  1.0000
  Ge          0.67166      0.90504      0.28943  1.0000
  Si          0.13085      0.77159      0.61488  1.0000
  Si          0.77612      0.66177      0.45297  1.0000
  Si          0.36851      0.09511      0.77325  1.0000
  Ge          0.93086      0.26015      0.11301  1.0000
  Si          0.39002      0.24064      0.37386  1.0000
  Ge          0.92001      0.65263      0.04320  1.0000
  Si          0.78893      0.10867      0.70233  1.0000
  Ge          0.68481      0.75668      0.87057  1.0000
  Si          0.12041      0.35410      0.54681  1.0000
  Ge          0.27805      0.90597      0.21994  1.0000
  Ge          0.97288      0.11654      0.95304  1.0000
  Ge          0.91062      0.87194      0.30034  1.0000
  Si          0.20181      0.05491      0.62908  1.0000
  Ge          0.04595      0.88291      0.47071  1.0000
  Si          0.15429      0.16345      0.78910  1.0000
  Ge          0.89067      0.98598      0.12684  1.0000
  Ge          0.14709      0.97198      0.36780  1.0000
  Ge          0.87275      0.88643      0.02293  1.0000
  Si          0.07311      0.18018      0.69114  1.0000
  Si          0.90281      0.03346      0.84971  1.0000
  Si          0.18219      0.13535      0.53119  1.0000
  Ge          0.00536      0.86974      0.19708  1.0000
  O1          0.93926      0.97923      0.97673  1.0000
  O1          0.04046      0.96147      0.33080  1.0000
  O2          0.12228      0.10077      0.66098  1.0000
  O3          0.08777      0.00710      0.50779  1.0000
  O2          0.02665      0.07971      0.81726  1.0000
  O1          0.98485      0.94064      0.15185  1.0000
  O3          0.37056      0.54532      0.32699  1.0000
  O2          0.46686      0.78885      0.65034  1.0000
  O1          0.24544      0.67566      0.97823  1.0000
  O2          0.66903      0.40899      0.82772  1.0000
  O1          0.60322      0.25208      0.17587  1.0000
  O2          0.79016      0.35836      0.51184  1.0000
  O1          0.57347      0.33662      0.99913  1.0000
  O2          0.80883      0.44808      0.66905  1.0000
  O1          0.70309      0.23336      0.34613  1.0000
  O2          0.43621      0.65054      0.49034  1.0000
  O1          0.27625      0.58780      0.15236  1.0000
  O2          0.37362      0.76599      0.81039  1.0000
  O1          0.12564      0.22157      0.96583  1.0000
  O1          0.79820      0.90949      0.31630  1.0000
  O2          0.13840      0.90257      0.63341  1.0000
  O3          0.88491      0.78178      0.47804  1.0000
  O2          0.23924      0.09359      0.79109  1.0000
  O1          0.94495      0.14230      0.13835  1.0000
  O3          0.26441      0.12556      0.35674  1.0000
  O1          0.93061      0.78609      0.01897  1.0000
  O2          0.92187      0.11780      0.68435  1.0000
  O3          0.82102      0.88284      0.84716  1.0000
  O2          0.12110      0.22754      0.52862  1.0000
  O1          0.16407      0.93344      0.19870  1.0000
  O1          0.94667      0.90402      0.24486  1.0000
  O2          0.19374      0.09914      0.58072  1.0000
  O3          0.95827      0.08922      0.89643  1.0000
  O2          0.10927      0.16897      0.74049  1.0000
  O1          0.90725      0.97606      0.07007  1.0000
  O1          0.08031      0.95306      0.42058  1.0000
  O1          0.88142      0.17998      0.97072  1.0000
  O1          0.85646      0.71439      0.31104  1.0000
  O2          0.35087      0.12139      0.63908  1.0000
  O3          0.12103      0.79471      0.47864  1.0000
  O2          0.23849      0.30726      0.80563  1.0000
  O1          0.73657      0.90118      0.14434  1.0000
  O1          0.20725      0.87288      0.36185  1.0000
  O1          0.71121      0.81132      0.01789  1.0000
  O2          0.14134      0.33005      0.68091  1.0000
  O2          0.81009      0.08989      0.83794  1.0000
  O2          0.32461      0.20478      0.51067  1.0000
  O1          0.93299      0.71029      0.18903  1.0000
  O1          0.35940      0.62099      0.24207  1.0000
  O2          0.38608      0.68710      0.57327  1.0000
  O3          0.33990      0.69976      0.89463  1.0000
  O2          0.70324      0.36029      0.74531  1.0000
  O1          0.64092      0.34323      0.08831  1.0000
  O3          0.73750      0.33047      0.42756  1.0000
  O1          0.37948      0.33291      0.95931  1.0000
  O1          0.68982      0.05005      0.29624  1.0000
  O2          0.00338      0.65522      0.63733  1.0000
  O2          0.64260      0.65847      0.46402  1.0000
  O2          0.36001      0.96323      0.78842  1.0000
  O1          0.04491      0.39390      0.13675  1.0000
  O2          0.38837      0.36719      0.35940  1.0000
  O1          0.06506      0.67183      0.03090  1.0000
  O2          0.67282      0.98111      0.68110  1.0000
  O3          0.68288      0.61860      0.85280  1.0000
  O2          0.98890      0.34520      0.53173  1.0000
  O1          0.41064      0.01898      0.19366  1.0000
  O1          0.75310      0.27475      0.01492  1.0000
  O1          0.76964      0.47798      0.34275  1.0000
  O2          0.57857      0.25320      0.67064  1.0000
  O2          0.25345      0.69769      0.50561  1.0000
  O2          0.34063      0.54401      0.83113  1.0000
  O1          0.49263      0.79316      0.16993  1.0000
  O1          0.29342      0.72582      0.31975  1.0000
  O1          0.48593      0.73935      0.97830  1.0000
  O2          0.27363      0.55992      0.64830  1.0000
  O2          0.71152      0.22413      0.81288  1.0000
  O2          0.56491      0.31078      0.48818  1.0000
  O1          0.81154      0.47006      0.16151  1.0000
  O1          0.79000      0.53154      0.01849  1.0000
  O3          0.51123      0.23536      0.35480  1.0000
  O2          0.78903      0.23507      0.68656  1.0000
  O2          0.24224      0.47133      0.52393  1.0000
  O3          0.55533      0.75763      0.84980  1.0000
  O1          0.24749      0.75650      0.20406  1.0000
  O1          0.54622      0.77541      0.31302  1.0000
  O1          0.25337      0.48228      0.96821  1.0000
  O2          0.25723      0.77178      0.63023  1.0000
  O2          0.48569      0.21538      0.79582  1.0000
  O2          0.77093      0.53690      0.47258  1.0000
  O1          0.77989      0.23240      0.12493  1.0000
  O3          0.23700      0.35257      0.88828  1.0000
  O1          0.68552      0.86734      0.23394  1.0000
  O2          0.12272      0.77958      0.56158  1.0000
  O3          0.81105      0.68224      0.40089  1.0000
  O2          0.36430      0.10607      0.72020  1.0000
  O1          0.95219      0.24936      0.05640  1.0000
  O2          0.38294      0.22644      0.42845  1.0000
  O1          0.88821      0.67086      0.09888  1.0000
  O2          0.79548      0.10001      0.75540  1.0000
  O1          0.70170      0.77766      0.92631  1.0000
  O2          0.12814      0.34737      0.59989  1.0000
  O1          0.25904      0.91831      0.27649  1.0000
  O1          0.58268      0.56793      0.98794  1.0000
  O1          0.46226      0.99196      0.33769  1.0000
  O2          0.02231      0.44970      0.65768  1.0000
  O2          0.43855      0.43448      0.47792  1.0000
  O2          0.58283      0.97256      0.80730  1.0000
  O1          0.07812      0.63755      0.13512  1.0000
  O3          0.60093      0.58034      0.33865  1.0000
  O1          0.01326      0.44028      0.99242  1.0000
  O2          0.46736      0.00081      0.66234  1.0000
  O2          0.45651      0.41347      0.84721  1.0000
  O2          0.99966      0.56711      0.51113  1.0000
  O1          0.65615      0.05543      0.19300  1.0000
  O1          0.56520      0.16414      0.26321  1.0000
  O2          0.87946      0.44323      0.58821  1.0000
  O3          0.61151      0.43876      0.91108  1.0000
  O2          0.45905      0.85477      0.73179  1.0000
  O1          0.18698      0.55236      0.06467  1.0000
  O2          0.45603      0.57414      0.40855  1.0000
  F           0.45347      0.86982      0.25494  1.0000
  F           0.13348      0.56640      0.57986  1.0000
  F           0.44862      0.57485      0.91767  1.0000
  F           0.58176      0.10947      0.73859  1.0000
  F           0.89289      0.45108      0.07695  1.0000
  F           0.60593      0.43033      0.40483  1.0000
