data_cif

_audit_creation_method             'generated by GULP'

_symmetry_space_group_name_H-M     'P 1'
_symmetry_Int_Tables_number        1
_symmetry_cell_setting             triclinic

_cell_length_a                       12.1838
_cell_length_b                       12.1984
_cell_length_c                       30.1911
_cell_angle_alpha                   90.7126
_cell_angle_beta                    89.2773
_cell_angle_gamma                  119.8122

loop_
_atom_site_label
_atom_site_fract_x
_atom_site_fract_y
_atom_site_fract_z
_atom_site_occupancy
  Ge          0.69960      0.37570      0.03389  1.0000
  Ge          0.62645      0.30431      0.38256  1.0000
  Si          0.68153      0.27023      0.70895  1.0000
  Si          0.30170      0.60953      0.54816  1.0000
  Si          0.39220      0.66131      0.86612  1.0000
  Ge          0.32292      0.68247      0.20519  1.0000
  Ge          0.36426      0.66191      0.30505  1.0000
  Si          0.34341      0.62232      0.96507  1.0000
  Si          0.30371      0.65751      0.64723  1.0000
  Si          0.62419      0.27181      0.80715  1.0000
  Ge          0.69787      0.35946      0.48159  1.0000
  Ge          0.69914      0.31044      0.13375  1.0000
  Si          0.53084      0.41133      0.96727  1.0000
  Ge          0.57274      0.09488      0.31105  1.0000
  Si          0.89845      0.44724      0.64884  1.0000
  Ge          0.46598      0.56144      0.48204  1.0000
  Si          0.42702      0.87292      0.80629  1.0000
  Ge          0.12356      0.51844      0.13342  1.0000
  Ge          0.41084      0.50246      0.37717  1.0000
  Ge          0.12872      0.57627      0.02928  1.0000
  Si          0.48215      0.87262      0.70694  1.0000
  Si          0.58410      0.45054      0.86757  1.0000
  Si          0.90376      0.40020      0.54894  1.0000
  Ge          0.53419      0.10571      0.20647  1.0000
  Si          0.30895      0.38517      0.85525  1.0000
  Ge          0.60120      0.88452      0.18601  1.0000
  Si          0.09806      0.67826      0.53601  1.0000
  Ge          0.70386      0.57913      0.35920  1.0000
  Si          0.40857      0.07493      0.69378  1.0000
  Ge          0.89981      0.29715      0.01305  1.0000
  Ge          0.41030      0.27636      0.49701  1.0000
  Ge          0.90762      0.59394      0.14981  1.0000
  Si          0.70374      0.07546      0.82097  1.0000
  Si          0.61673      0.69290      0.97798  1.0000
  Si          0.10980      0.38073      0.65953  1.0000
  Ge          0.28309      0.86695      0.31913  1.0000
  Si          0.25609      0.34022      0.95426  1.0000
  Ge          0.64901      0.88409      0.28805  1.0000
  Si          0.09379      0.72479      0.63564  1.0000
  Ge          0.75542      0.64250      0.46238  1.0000
  Si          0.34703      0.06914      0.79232  1.0000
  Ge          0.91216      0.23796      0.11219  1.0000
  Ge          0.33950      0.21622      0.39414  1.0000
  Ge          0.92277      0.65935      0.04752  1.0000
  Si          0.75680      0.06855      0.72202  1.0000
  Si          0.66720      0.72874      0.87848  1.0000
  Si          0.10858      0.33121      0.56019  1.0000
  Ge          0.24647      0.89007      0.21582  1.0000
  Ge          0.97344      0.11460      0.96534  1.0000
  Ge          0.87772      0.83338      0.30897  1.0000
  Si          0.15607      0.00177      0.64922  1.0000
  Si          0.03318      0.85769      0.48413  1.0000
  Si          0.13158      0.13488      0.80699  1.0000
  Ge          0.84847      0.95387      0.13075  1.0000
  Ge          0.10801      0.93342      0.38024  1.0000
  Si          0.86102      0.87034      0.02953  1.0000
  Si          0.03699      0.13322      0.70917  1.0000
  Si          0.88220      0.00259      0.86710  1.0000
  Ge          0.15988      0.10107      0.54977  1.0000
  Ge          0.96906      0.84091      0.20454  1.0000
  O3          0.93748      0.00492      0.00711  1.0000
  O1          0.96982      0.89632      0.35551  1.0000
  O2          0.08054      0.04898      0.68101  1.0000
  O3          0.06868      0.97692      0.51530  1.0000
  O2          0.00879      0.05344      0.83723  1.0000
  O1          0.90597      0.91432      0.17617  1.0000
  O1          0.32630      0.54299      0.34291  1.0000
  O2          0.42811      0.74460      0.67683  1.0000
  O3          0.26434      0.66397      0.99658  1.0000
  O2          0.65788      0.39460      0.83784  1.0000
  O1          0.58241      0.23471      0.17340  1.0000
  O3          0.78380      0.32258      0.51815  1.0000
  O3          0.56909      0.33630      0.00001  1.0000
  O2          0.77156      0.39425      0.67903  1.0000
  O1          0.66258      0.21052      0.34677  1.0000
  O3          0.42217      0.64923      0.51622  1.0000
  O1          0.24139      0.55345      0.16910  1.0000
  O2          0.35353      0.74600      0.83565  1.0000
  O3          0.13473      0.21782      0.97333  1.0000
  O1          0.78315      0.89856      0.31200  1.0000
  O2          0.09601      0.85013      0.65601  1.0000
  O3          0.88288      0.77729      0.48471  1.0000
  O2          0.22199      0.07234      0.81036  1.0000
  O1          0.92683      0.11298      0.13214  1.0000
  O1          0.20730      0.09107      0.37169  1.0000
  O3          0.92796      0.78848      0.02080  1.0000
  O2          0.88516      0.07221      0.70358  1.0000
  O2          0.79151      0.85190      0.85784  1.0000
  O3          0.11079      0.21046      0.54011  1.0000
  O1          0.12548      0.90329      0.19185  1.0000
  O1          0.96154      0.86593      0.26094  1.0000
  O3          0.12984      0.03446      0.60132  1.0000
  O3          0.93311      0.02927      0.91634  1.0000
  O2          0.07777      0.12813      0.75855  1.0000
  O3          0.86362      0.88594      0.08274  1.0000
  O3          0.09259      0.90867      0.43667  1.0000
  O1          0.89800      0.19697      0.96999  1.0000
  O1          0.79085      0.67260      0.31553  1.0000
  O2          0.30761      0.07113      0.65764  1.0000
  O2          0.09413      0.77212      0.49972  1.0000
  O2          0.21146      0.28275      0.81964  1.0000
  O1          0.69089      0.89393      0.14030  1.0000
  O1          0.17351      0.84914      0.35957  1.0000
  O2          0.71367      0.79274      0.01397  1.0000
  O2          0.10706      0.28040      0.69499  1.0000
  O2          0.80084      0.07272      0.85711  1.0000
  O1          0.31704      0.17686      0.53913  1.0000
  O1          0.89583      0.68244      0.19285  1.0000
  O1          0.32917      0.60279      0.25190  1.0000
  O2          0.35858      0.66225      0.59733  1.0000
  O2          0.34041      0.67056      0.91517  1.0000
  O2          0.68025      0.32691      0.75796  1.0000
  O1          0.63522      0.28784      0.08134  1.0000
  O1          0.71623      0.31611      0.42885  1.0000
  O2          0.37759      0.33249      0.97091  1.0000
  O1          0.66482      0.02918      0.29553  1.0000
  O2          0.96541      0.60101      0.65274  1.0000
  O1          0.62563      0.65942      0.47149  1.0000
  O2          0.33908      0.93943      0.80967  1.0000
  O1          0.06086      0.36020      0.12128  1.0000
  O1          0.34521      0.34326      0.36826  1.0000
  O1          0.03981      0.64827      0.02002  1.0000
  O2          0.63629      0.93909      0.70315  1.0000
  O2          0.67204      0.60366      0.86203  1.0000
  O2          0.97749      0.32027      0.54362  1.0000
  O1          0.37786      0.01051      0.19208  1.0000
  O1          0.77697      0.31947      0.00024  1.0000
  O1          0.68850      0.43539      0.34798  1.0000
  O2          0.54174      0.20592      0.68583  1.0000
  O2          0.23089      0.68003      0.52674  1.0000
  O2          0.31502      0.51888      0.84497  1.0000
  O1          0.45740      0.76146      0.17246  1.0000
  O1          0.26416      0.71818      0.31925  1.0000
  O2          0.48560      0.69455      0.98569  1.0000
  O2          0.23861      0.51515      0.66766  1.0000
  O2          0.70032      0.20628      0.82845  1.0000
  O1          0.54208      0.26103      0.49711  1.0000
  O1          0.75774      0.46660      0.14737  1.0000
  O1          0.77244      0.53674      0.03976  1.0000
  O1          0.46380      0.19545      0.37909  1.0000
  O2          0.75678      0.19171      0.70293  1.0000
  O2          0.23272      0.45529      0.54026  1.0000
  O2          0.54499      0.73063      0.85924  1.0000
  O1          0.21908      0.74218      0.20123  1.0000
  O1          0.52210      0.76436      0.31524  1.0000
  O2          0.26291      0.46902      0.97240  1.0000
  O2          0.21750      0.72400      0.65351  1.0000
  O2          0.47095      0.19053      0.81193  1.0000
  O1          0.74543      0.51621      0.49000  1.0000
  O1          0.79379      0.24441      0.14172  1.0000
  O2          0.23590      0.32098      0.90095  1.0000
  O1          0.65724      0.84843      0.23311  1.0000
  O2          0.09428      0.74355      0.58267  1.0000
  O1          0.79062      0.64452      0.40720  1.0000
  O2          0.33466      0.07082      0.73916  1.0000
  O1          0.87611      0.19883      0.05740  1.0000
  O1          0.31738      0.21682      0.45079  1.0000
  O1          0.95224      0.68868      0.10346  1.0000
  O2          0.77099      0.06978      0.77507  1.0000
  O2          0.68650      0.75402      0.93126  1.0000
  O2          0.11304      0.31364      0.61327  1.0000
  O1          0.23261      0.90675      0.27236  1.0000
  O2          0.59900      0.55522      0.98736  1.0000
  O1          0.43289      0.97734      0.33410  1.0000
  O2          0.98585      0.39384      0.66860  1.0000
  O1          0.44924      0.42968      0.50809  1.0000
  O2          0.56453      0.95619      0.82932  1.0000
  O1          0.00958      0.54081      0.16056  1.0000
  O1          0.56620      0.58581      0.36065  1.0000
  O1          0.05004      0.42428      0.00982  1.0000
  O2          0.42542      0.95356      0.68376  1.0000
  O2          0.44399      0.39302      0.84640  1.0000
  O2          0.97630      0.54054      0.52653  1.0000
  O1          0.61912      0.03283      0.19227  1.0000
  O1          0.54236      0.14677      0.26162  1.0000
  O2          0.85086      0.39848      0.59878  1.0000
  O2          0.58359      0.40537      0.91778  1.0000
  O2          0.43022      0.82330      0.75643  1.0000
  O1          0.17490      0.59904      0.08369  1.0000
  O1          0.38906      0.52956      0.43222  1.0000
  F           0.42330      0.84769      0.24842  1.0000
  F           0.10965      0.52882      0.59442  1.0000
  F           0.45915      0.53930      0.91562  1.0000
  F           0.55645      0.07735      0.75540  1.0000
  F           0.89421      0.42492      0.07583  1.0000
  F           0.56398      0.40741      0.42180  1.0000
