data_cif

_audit_creation_method             'generated by GULP'

_symmetry_space_group_name_H-M     'P 1'
_symmetry_Int_Tables_number        1
_symmetry_cell_setting             triclinic

_cell_length_a                       12.1686
_cell_length_b                       12.0894
_cell_length_c                       30.2586
_cell_angle_alpha                   90.0484
_cell_angle_beta                    88.4243
_cell_angle_gamma                  119.3382

loop_
_atom_site_label
_atom_site_fract_x
_atom_site_fract_y
_atom_site_fract_z
_atom_site_occupancy
  Ge          0.69960      0.37570      0.03389  1.0000
  Ge          0.68778      0.32471      0.38148  1.0000
  Si          0.72451      0.28996      0.70343  1.0000
  Si          0.34369      0.61689      0.53984  1.0000
  Si          0.42454      0.66466      0.86102  1.0000
  Ge          0.34339      0.67533      0.20391  1.0000
  Ge          0.39430      0.67429      0.30337  1.0000
  Si          0.36068      0.63001      0.96156  1.0000
  Si          0.34874      0.67643      0.63780  1.0000
  Si          0.65546      0.27562      0.80160  1.0000
  Ge          0.73696      0.37362      0.48048  1.0000
  Ge          0.71571      0.32106      0.13664  1.0000
  Ge          0.53921      0.42224      0.96372  1.0000
  Ge          0.60462      0.10424      0.31766  1.0000
  Si          0.94558      0.47410      0.64539  1.0000
  Si          0.50843      0.57366      0.47183  1.0000
  Si          0.46339      0.87595      0.79711  1.0000
  Ge          0.14479      0.53200      0.12983  1.0000
  Ge          0.46687      0.52687      0.36945  1.0000
  Ge          0.14176      0.57697      0.02531  1.0000
  Si          0.52570      0.88625      0.69792  1.0000
  Si          0.61879      0.44540      0.86752  1.0000
  Si          0.94344      0.41723      0.54668  1.0000
  Ge          0.56821      0.10936      0.21247  1.0000
  Si          0.33917      0.38103      0.85374  1.0000
  Ge          0.63529      0.88620      0.19646  1.0000
  Si          0.14289      0.69345      0.52799  1.0000
  Ge          0.76354      0.59985      0.35887  1.0000
  Si          0.45376      0.09394      0.68748  1.0000
  Ge          0.91182      0.29484      0.01474  1.0000
  Ge          0.44395      0.28490      0.48753  1.0000
  Ge          0.93210      0.60684      0.15225  1.0000
  Si          0.73466      0.07666      0.81273  1.0000
  Si          0.63429      0.69879      0.98154  1.0000
  Si          0.15172      0.40250      0.65653  1.0000
  Ge          0.31738      0.87199      0.32911  1.0000
  Si          0.26773      0.33962      0.95409  1.0000
  Ge          0.67464      0.88351      0.29858  1.0000
  Si          0.14190      0.74887      0.62661  1.0000
  Si          0.79442      0.65542      0.46149  1.0000
  Si          0.38209      0.07397      0.78572  1.0000
  Ge          0.92947      0.24481      0.11688  1.0000
  Ge          0.40060      0.23562      0.38515  1.0000
  Ge          0.93301      0.64097      0.05183  1.0000
  Si          0.79809      0.08240      0.71433  1.0000
  Si          0.70043      0.72841      0.88031  1.0000
  Si          0.14342      0.34167      0.55876  1.0000
  Ge          0.27874      0.89260      0.22626  1.0000
  Ge          0.98264      0.11543      0.96227  1.0000
  Ge          0.92053      0.86003      0.30922  1.0000
  Si          0.20672      0.02885      0.64295  1.0000
  Ge          0.06430      0.87548      0.48201  1.0000
  Si          0.16363      0.13632      0.80234  1.0000
  Ge          0.88090      0.96406      0.13438  1.0000
  Ge          0.15275      0.96514      0.37770  1.0000
  Ge          0.87972      0.87385      0.03002  1.0000
  Si          0.08053      0.15186      0.70458  1.0000
  Si          0.91189      0.00703      0.86219  1.0000
  Si          0.19586      0.11724      0.54522  1.0000
  Ge          0.00672      0.85741      0.20491  1.0000
  O1          0.97125      0.99645      0.99372  1.0000
  O1          0.03868      0.95230      0.34340  1.0000
  O2          0.13016      0.07108      0.67676  1.0000
  O3          0.09972      0.99229      0.52042  1.0000
  O2          0.03808      0.04870      0.83167  1.0000
  O1          0.98389      0.93210      0.16087  1.0000
  O1          0.36656      0.54292      0.33662  1.0000
  O2          0.47390      0.76310      0.66618  1.0000
  O3          0.27363      0.66876      0.98981  1.0000
  O2          0.68990      0.39627      0.83295  1.0000
  O1          0.60417      0.23574      0.17789  1.0000
  O3          0.81998      0.33994      0.51919  1.0000
  O1          0.57630      0.33484      0.00112  1.0000
  O2          0.81740      0.42042      0.67624  1.0000
  O1          0.71407      0.21927      0.34911  1.0000
  O2          0.46127      0.64871      0.50561  1.0000
  O1          0.27160      0.56796      0.16245  1.0000
  O2          0.39114      0.74640      0.82715  1.0000
  O3          0.13200      0.24028      0.97232  1.0000
  O1          0.80272      0.89027      0.32405  1.0000
  O2          0.14499      0.87576      0.64637  1.0000
  O3          0.90252      0.77849      0.48510  1.0000
  O2          0.25373      0.07222      0.80390  1.0000
  O1          0.93436      0.12279      0.14311  1.0000
  O1          0.27188      0.11202      0.36256  1.0000
  O1          0.94241      0.78067      0.02850  1.0000
  O2          0.92988      0.08999      0.69691  1.0000
  O2          0.82424      0.85329      0.85953  1.0000
  O2          0.14503      0.21794      0.53952  1.0000
  O1          0.16592      0.91842      0.20329  1.0000
  O1          0.96180      0.89540      0.25424  1.0000
  O2          0.19102      0.07531      0.59578  1.0000
  O3          0.96248      0.05739      0.90929  1.0000
  O2          0.11412      0.14115      0.75450  1.0000
  O1          0.87998      0.94601      0.07881  1.0000
  O1          0.10559      0.95249      0.43238  1.0000
  O1          0.89028      0.18024      0.97550  1.0000
  O1          0.87037      0.70263      0.31987  1.0000
  O2          0.35656      0.09500      0.65178  1.0000
  O3          0.13931      0.78691      0.49085  1.0000
  O2          0.24485      0.28158      0.81819  1.0000
  O1          0.73120      0.87606      0.15529  1.0000
  O1          0.20655      0.86056      0.36890  1.0000
  O3          0.72169      0.80610      0.01464  1.0000
  O2          0.15010      0.30221      0.69291  1.0000
  O2          0.82848      0.07203      0.84869  1.0000
  O3          0.33805      0.18225      0.52817  1.0000
  O1          0.93130      0.69715      0.19691  1.0000
  O1          0.35271      0.60273      0.25174  1.0000
  O2          0.40228      0.67515      0.58775  1.0000
  O2          0.36837      0.66954      0.90963  1.0000
  O2          0.71589      0.33666      0.75315  1.0000
  O1          0.65317      0.34736      0.09044  1.0000
  O1          0.74406      0.30403      0.43220  1.0000
  O3          0.37317      0.31568      0.97396  1.0000
  O1          0.69182      0.02962      0.30290  1.0000
  O2          0.01321      0.62885      0.64712  1.0000
  O2          0.65914      0.63689      0.47856  1.0000
  O2          0.37393      0.94141      0.80216  1.0000
  O1          0.04097      0.37604      0.14289  1.0000
  O1          0.38275      0.36456      0.37817  1.0000
  O1          0.08355      0.67861      0.03311  1.0000
  O2          0.68002      0.95375      0.69511  1.0000
  O2          0.70371      0.60193      0.86444  1.0000
  O2          0.01431      0.33300      0.54216  1.0000
  O1          0.41513      0.00207      0.20028  1.0000
  O1          0.76625      0.28065      0.02036  1.0000
  O1          0.78335      0.46986      0.35494  1.0000
  O2          0.58629      0.22652      0.68094  1.0000
  O2          0.27347      0.68927      0.51886  1.0000
  O2          0.35344      0.51973      0.84361  1.0000
  O1          0.48864      0.77677      0.17971  1.0000
  O1          0.29480      0.72073      0.32908  1.0000
  O2          0.50062      0.70063      0.98111  1.0000
  O2          0.28296      0.53565      0.66126  1.0000
  O2          0.72818      0.20560      0.82254  1.0000
  O1          0.58669      0.30729      0.50379  1.0000
  O1          0.81276      0.45721      0.16506  1.0000
  O1          0.80525      0.53246      0.02347  1.0000
  O1          0.52930      0.23665      0.36095  1.0000
  O2          0.79665      0.20756      0.69654  1.0000
  O2          0.26712      0.46325      0.53786  1.0000
  O2          0.57546      0.72356      0.86113  1.0000
  O1          0.24799      0.74169      0.21430  1.0000
  O1          0.54878      0.75496      0.32322  1.0000
  O2          0.28557      0.47712      0.96947  1.0000
  O2          0.26736      0.74966      0.64337  1.0000
  O2          0.50195      0.19488      0.80629  1.0000
  O3          0.81059      0.53804      0.47651  1.0000
  O1          0.78113      0.22668      0.12448  1.0000
  O2          0.26531      0.32455      0.90017  1.0000
  O1          0.68426      0.84615      0.24328  1.0000
  O2          0.13955      0.76469      0.57348  1.0000
  O3          0.81548      0.68025      0.40895  1.0000
  O2          0.37519      0.08313      0.73286  1.0000
  O1          0.96023      0.24843      0.06107  1.0000
  O1          0.39000      0.19638      0.44146  1.0000
  O1          0.90658      0.67384      0.10632  1.0000
  O2          0.80756      0.07746      0.76720  1.0000
  O2          0.70926      0.74687      0.93300  1.0000
  O2          0.14578      0.32746      0.61171  1.0000
  O1          0.26597      0.91239      0.28205  1.0000
  O3          0.61626      0.56527      0.99625  1.0000
  O1          0.46550      0.98734      0.34309  1.0000
  O2          0.03054      0.42020      0.66757  1.0000
  O3          0.44035      0.42602      0.48517  1.0000
  O2          0.59810      0.95209      0.82082  1.0000
  O1          0.08216      0.62542      0.14725  1.0000
  O1          0.61430      0.56779      0.34647  1.0000
  O1          0.03035      0.44357      0.99901  1.0000
  O2          0.47298      0.97365      0.67664  1.0000
  O2          0.47624      0.39246      0.84885  1.0000
  O2          0.01980      0.55584      0.52202  1.0000
  O1          0.65832      0.03852      0.19968  1.0000
  O1          0.57635      0.15294      0.26685  1.0000
  O2          0.89457      0.42076      0.59686  1.0000
  O3          0.61774      0.39532      0.91574  1.0000
  O2          0.46895      0.82926      0.74719  1.0000
  O1          0.19427      0.55114      0.07484  1.0000
  O3          0.48434      0.59652      0.42204  1.0000
  F           0.45875      0.84500      0.26573  1.0000
  F           0.14875      0.54874      0.59203  1.0000
  F           0.49766      0.51469      0.92542  1.0000
  F           0.59222      0.08319      0.75088  1.0000
  F           0.92845      0.47910      0.08120  1.0000
  F           0.61374      0.41125      0.41764  1.0000
