data_cif

_audit_creation_method             'generated by GULP'

_symmetry_space_group_name_H-M     'P 1'
_symmetry_Int_Tables_number        1
_symmetry_cell_setting             triclinic

_cell_length_a                       12.1457
_cell_length_b                       12.2017
_cell_length_c                       30.2494
_cell_angle_alpha                   88.7895
_cell_angle_beta                    89.6256
_cell_angle_gamma                  119.8761

loop_
_atom_site_label
_atom_site_fract_x
_atom_site_fract_y
_atom_site_fract_z
_atom_site_occupancy
  Si          0.69960      0.37570      0.03389  1.0000
  Ge          0.60211      0.29910      0.35561  1.0000
  Ge          0.66732      0.31472      0.70305  1.0000
  Ge          0.30730      0.63723      0.53555  1.0000
  Si          0.35845      0.67719      0.87464  1.0000
  Si          0.29934      0.68969      0.19646  1.0000
  Si          0.35428      0.69072      0.29440  1.0000
  Si          0.31341      0.60777      0.97480  1.0000
  Ge          0.31199      0.69191      0.63454  1.0000
  Ge          0.61472      0.33184      0.80553  1.0000
  Ge          0.66918      0.34130      0.45811  1.0000
  Si          0.68755      0.31007      0.13217  1.0000
  Si          0.52937      0.41142      0.96928  1.0000
  Si          0.56184      0.09310      0.28999  1.0000
  Ge          0.87945      0.46134      0.62764  1.0000
  Ge          0.44768      0.56370      0.46887  1.0000
  Ge          0.41267      0.89737      0.81184  1.0000
  Si          0.09033      0.51145      0.13626  1.0000
  Ge          0.40282      0.52918      0.36413  1.0000
  Si          0.09901      0.57022      0.03709  1.0000
  Ge          0.45811      0.89248      0.70847  1.0000
  Ge          0.56066      0.49468      0.87316  1.0000
  Ge          0.89164      0.41830      0.52355  1.0000
  Si          0.50466      0.09063      0.19121  1.0000
  Si          0.28657      0.40283      0.85386  1.0000
  Si          0.57471      0.88519      0.17851  1.0000
  Ge          0.11076      0.71010      0.50750  1.0000
  Si          0.68689      0.58698      0.34629  1.0000
  Ge          0.38221      0.10230      0.68908  1.0000
  Si          0.89775      0.29747      0.02230  1.0000
  Ge          0.39445      0.28017      0.47166  1.0000
  Si          0.88367      0.58270      0.14685  1.0000
  Ge          0.69505      0.12295      0.82229  1.0000
  Si          0.59472      0.69063      0.98435  1.0000
  Ge          0.10374      0.39697      0.64149  1.0000
  Si          0.28260      0.89303      0.30736  1.0000
  Si          0.24790      0.33150      0.95474  1.0000
  Si          0.63180      0.88959      0.27645  1.0000
  Ge          0.09470      0.75363      0.61078  1.0000
  Ge          0.73477      0.62918      0.44705  1.0000
  Ge          0.33458      0.10191      0.79123  1.0000
  Si          0.89416      0.23713      0.12078  1.0000
  Ge          0.31799      0.23688      0.37388  1.0000
  Si          0.90234      0.65128      0.04847  1.0000
  Ge          0.74360      0.10538      0.72035  1.0000
  Si          0.64662      0.76720      0.88443  1.0000
  Ge          0.11063      0.34901      0.53906  1.0000
  Si          0.22761      0.89560      0.20896  1.0000
  Si          0.96675      0.12003      0.97259  1.0000
  Si          0.85068      0.83149      0.29075  1.0000
  Ge          0.13622      0.02882      0.63197  1.0000
  Ge          0.01504      0.87217      0.45871  1.0000
  Ge          0.10372      0.15543      0.80861  1.0000
  Si          0.82688      0.95561      0.13135  1.0000
  Ge          0.09576      0.96239      0.35342  1.0000
  Si          0.84066      0.86906      0.03359  1.0000
  Ge          0.02229      0.14951      0.70203  1.0000
  Si          0.86507      0.05021      0.87483  1.0000
  Ge          0.14369      0.11069      0.52570  1.0000
  Si          0.94727      0.82855      0.19300  1.0000
  O2          0.92367      0.99327      0.00255  1.0000
  O3          0.97134      0.92023      0.31801  1.0000
  O1          0.05302      0.04793      0.67442  1.0000
  O1          0.03902      0.98176      0.49681  1.0000
  O3          0.97825      0.06607      0.84445  1.0000
  O2          0.90498      0.90751      0.16088  1.0000
  O3          0.32073      0.57753      0.32872  1.0000
  O1          0.41777      0.76380      0.67595  1.0000
  O2          0.22942      0.64189      0.00719  1.0000
  O1          0.65000      0.45698      0.83706  1.0000
  O2          0.55834      0.21885      0.16044  1.0000
  O1          0.77276      0.31706      0.48945  1.0000
  O2          0.57728      0.33960      0.00347  1.0000
  O1          0.75432      0.42876      0.66181  1.0000
  O3          0.64203      0.21670      0.31790  1.0000
  O1          0.44042      0.66742      0.50280  1.0000
  O2          0.21342      0.56474      0.16757  1.0000
  O3          0.32045      0.76489      0.84734  1.0000
  O2          0.12070      0.20708      0.97462  1.0000
  O2          0.75566      0.88783      0.29467  1.0000
  O1          0.07278      0.86850      0.63345  1.0000
  O1          0.86226      0.75498      0.46960  1.0000
  O1          0.20074      0.09567      0.81520  1.0000
  O2          0.88853      0.10687      0.13833  1.0000
  O1          0.18821      0.12021      0.34674  1.0000
  O2          0.90446      0.77962      0.03043  1.0000
  O1          0.86505      0.09825      0.69416  1.0000
  O2          0.75208      0.90646      0.86832  1.0000
  O1          0.10079      0.22219      0.51318  1.0000
  O2          0.10084      0.89298      0.18984  1.0000
  O2          0.89775      0.83496      0.24100  1.0000
  O1          0.11151      0.07732      0.58201  1.0000
  O2          0.91858      0.07351      0.92430  1.0000
  O1          0.04205      0.14158      0.75770  1.0000
  O2          0.84315      0.92131      0.08178  1.0000
  O1          0.02820      0.92525      0.40510  1.0000
  O2          0.90227      0.20222      0.98676  1.0000
  O2          0.78074      0.68651      0.30822  1.0000
  O1          0.29344      0.10505      0.64499  1.0000
  O1          0.11303      0.81030      0.46599  1.0000
  O3          0.17901      0.31616      0.82016  1.0000
  O2          0.67586      0.88702      0.14212  1.0000
  O3          0.18700      0.89069      0.34472  1.0000
  O2          0.69316      0.78469      0.02040  1.0000
  O1          0.11225      0.30155      0.68304  1.0000
  O3          0.80763      0.13805      0.86212  1.0000
  O1          0.29717      0.16631      0.51353  1.0000
  O2          0.88212      0.68000      0.18232  1.0000
  O2          0.29864      0.63381      0.24594  1.0000
  O1          0.38288      0.68200      0.58647  1.0000
  O2          0.31450      0.66565      0.92619  1.0000
  O1          0.64452      0.37943      0.74955  1.0000
  O2          0.63970      0.31592      0.08257  1.0000
  O1          0.68209      0.30873      0.40329  1.0000
  O2          0.37235      0.32652      0.97112  1.0000
  O2          0.64263      0.01935      0.29369  1.0000
  O1          0.98651      0.61687      0.63750  1.0000
  O1          0.60995      0.64961      0.45536  1.0000
  O1          0.30926      0.95290      0.80370  1.0000
  O2          0.02305      0.35699      0.13931  1.0000
  O1          0.32783      0.37164      0.35229  1.0000
  O2          0.03438      0.65944      0.03156  1.0000
  O1          0.61469      0.99007      0.69406  1.0000
  O3          0.66930      0.66261      0.86350  1.0000
  O1          0.96128      0.32909      0.53520  1.0000
  O2          0.35007      0.02395      0.18888  1.0000
  O2          0.76896      0.30297      0.01263  1.0000
  O3          0.65395      0.44868      0.33173  1.0000
  O1          0.53063      0.22279      0.67451  1.0000
  O1          0.26181      0.73492      0.50799  1.0000
  O2          0.28916      0.53804      0.85381  1.0000
  O2          0.44017      0.75523      0.17266  1.0000
  O2          0.28363      0.76187      0.31531  1.0000
  O2          0.45670      0.67771      0.99364  1.0000
  O1          0.21006      0.54513      0.65829  1.0000
  O1          0.71270      0.27025      0.81950  1.0000
  O1          0.51855      0.24873      0.47869  1.0000
  O2          0.75122      0.44959      0.15389  1.0000
  O2          0.78065      0.52975      0.02852  1.0000
  O1          0.44144      0.21339      0.35818  1.0000
  O1          0.76767      0.25501      0.71078  1.0000
  O1          0.23134      0.48171      0.51419  1.0000
  O2          0.51230      0.75303      0.86798  1.0000
  O2          0.22586      0.77022      0.19159  1.0000
  O2          0.50926      0.76566      0.29734  1.0000
  O2          0.25338      0.45642      0.97428  1.0000
  O1          0.24551      0.78537      0.62246  1.0000
  O1          0.45919      0.21982      0.81762  1.0000
  O1          0.72694      0.49795      0.47171  1.0000
  O2          0.76983      0.23885      0.13897  1.0000
  O2          0.23400      0.32578      0.90186  1.0000
  O2          0.64716      0.88835      0.22342  1.0000
  O1          0.07148      0.76130      0.55499  1.0000
  O3          0.76704      0.62430      0.39066  1.0000
  O1          0.31986      0.13156      0.73604  1.0000
  O2          0.89704      0.22582      0.06789  1.0000
  O1          0.28425      0.20508      0.42943  1.0000
  O2          0.89445      0.65995      0.10133  1.0000
  O1          0.74678      0.07931      0.77629  1.0000
  O2          0.65539      0.76407      0.93820  1.0000
  O1          0.14645      0.34851      0.59486  1.0000
  O2          0.21298      0.89932      0.26205  1.0000
  O2          0.58012      0.55261      0.98914  1.0000
  O2          0.42175      0.01514      0.31385  1.0000
  O1          0.95174      0.37274      0.63837  1.0000
  O1          0.40841      0.41757      0.49233  1.0000
  O1          0.54564      0.00588      0.83869  1.0000
  O2          0.00353      0.56438      0.15754  1.0000
  O3          0.56331      0.60129      0.35066  1.0000
  O2          0.02279      0.43441      0.01361  1.0000
  O1          0.36249      0.95248      0.69235  1.0000
  O3          0.41890      0.41737      0.83954  1.0000
  O1          0.99562      0.55758      0.49572  1.0000
  O2          0.55972      0.00770      0.16835  1.0000
  O2          0.55826      0.14157      0.23981  1.0000
  O1          0.83606      0.44525      0.57263  1.0000
  O3          0.58299      0.41515      0.92133  1.0000
  O1          0.43787      0.84145      0.76326  1.0000
  O2          0.14655      0.56721      0.08681  1.0000
  O1          0.37447      0.54929      0.41759  1.0000
  F           0.42750      0.88578      0.24271  1.0000
  F           0.14214      0.57127      0.57149  1.0000
  F           0.46646      0.53571      0.91045  1.0000
  F           0.53222      0.10870      0.75398  1.0000
  F           0.89313      0.44233      0.08344  1.0000
  F           0.50872      0.39697      0.41835  1.0000
