data_cif

_audit_creation_method             'generated by GULP'

_symmetry_space_group_name_H-M     'P 1'
_symmetry_Int_Tables_number        1
_symmetry_cell_setting             triclinic

_cell_length_a                       12.3362
_cell_length_b                       12.1458
_cell_length_c                       30.1418
_cell_angle_alpha                   91.9298
_cell_angle_beta                    89.6456
_cell_angle_gamma                  120.9912

loop_
_atom_site_label
_atom_site_fract_x
_atom_site_fract_y
_atom_site_fract_z
_atom_site_occupancy
  Ge          0.69960      0.37570      0.03389  1.0000
  Si          0.62064      0.32668      0.35988  1.0000
  Ge          0.69681      0.31739      0.68666  1.0000
  Si          0.31205      0.61816      0.52689  1.0000
  Ge          0.37790      0.70551      0.87201  1.0000
  Si          0.36134      0.68125      0.21043  1.0000
  Si          0.39268      0.69280      0.30785  1.0000
  Ge          0.32705      0.64513      0.97272  1.0000
  Si          0.29863      0.67279      0.62517  1.0000
  Ge          0.64333      0.32402      0.78641  1.0000
  Si          0.69149      0.37732      0.45817  1.0000
  Ge          0.67953      0.30324      0.13343  1.0000
  Ge          0.55014      0.43154      0.96061  1.0000
  Si          0.57564      0.10543      0.29575  1.0000
  Si          0.89832      0.47408      0.61649  1.0000
  Si          0.49611      0.58413      0.46947  1.0000
  Ge          0.41585      0.90637      0.80160  1.0000
  Ge          0.12700      0.58686      0.15341  1.0000
  Si          0.43246      0.52829      0.37045  1.0000
  Ge          0.12370      0.60155      0.04611  1.0000
  Ge          0.45522      0.88614      0.69632  1.0000
  Ge          0.58509      0.47986      0.85549  1.0000
  Si          0.90843      0.41561      0.51706  1.0000
  Si          0.51441      0.07570      0.19421  1.0000
  Ge          0.30111      0.42202      0.84835  1.0000
  Si          0.61794      0.88718      0.18670  1.0000
  Si          0.11995      0.69444      0.50777  1.0000
  Si          0.70385      0.60576      0.34990  1.0000
  Ge          0.39973      0.11511      0.68053  1.0000
  Ge          0.91376      0.30589      0.02644  1.0000
  Si          0.42101      0.30325      0.47769  1.0000
  Ge          0.86885      0.58498      0.15917  1.0000
  Ge          0.71172      0.12614      0.81401  1.0000
  Ge          0.61314      0.71828      0.98302  1.0000
  Si          0.09214      0.39448      0.63490  1.0000
  Si          0.29403      0.88071      0.30847  1.0000
  Ge          0.26291      0.36049      0.95071  1.0000
  Si          0.66900      0.91742      0.28959  1.0000
  Si          0.10612      0.75248      0.60592  1.0000
  Si          0.76692      0.65956      0.44916  1.0000
  Ge          0.35283      0.12535      0.78367  1.0000
  Ge          0.92614      0.28995      0.12969  1.0000
  Si          0.34849      0.24916      0.37935  1.0000
  Ge          0.90435      0.66230      0.05832  1.0000
  Ge          0.75089      0.09400      0.70964  1.0000
  Ge          0.65345      0.76509      0.88228  1.0000
  Si          0.10112      0.33686      0.53595  1.0000
  Si          0.23041      0.86950      0.20825  1.0000
  Ge          0.98630      0.12946      0.96577  1.0000
  Si          0.88096      0.85960      0.30400  1.0000
  Si          0.15724      0.03163      0.62184  1.0000
  Si          0.05098      0.87129      0.46140  1.0000
  Ge          0.12209      0.17133      0.79171  1.0000
  Ge          0.87977      0.01054      0.13905  1.0000
  Si          0.13042      0.96562      0.36291  1.0000
  Ge          0.86589      0.89933      0.03659  1.0000
  Ge          0.02901      0.14555      0.68639  1.0000
  Ge          0.88688      0.04838      0.86143  1.0000
  Si          0.17132      0.12529      0.52341  1.0000
  Ge          0.96531      0.85294      0.20332  1.0000
  O1          0.93704      0.98821      0.99060  1.0000
  O2          0.00270      0.92947      0.33691  1.0000
  O3          0.05864      0.05305      0.64909  1.0000
  O2          0.09711      0.99961      0.49132  1.0000
  O1          0.98030      0.07806      0.81530  1.0000
  O1          0.95930      0.95341      0.16731  1.0000
  O2          0.35925      0.58718      0.34459  1.0000
  O3          0.40862      0.75156      0.66109  1.0000
  O1          0.25234      0.68601      0.01242  1.0000
  O1          0.68017      0.46064      0.81959  1.0000
  O3          0.54535      0.18762      0.16244  1.0000
  O2          0.78293      0.34119      0.48477  1.0000
  O1          0.58937      0.34183      0.99174  1.0000
  O3          0.77548      0.42939      0.64529  1.0000
  O2          0.64664      0.23809      0.32485  1.0000
  O2          0.44322      0.65644      0.50112  1.0000
  O3          0.25493      0.57602      0.18193  1.0000
  O1          0.33270      0.78980      0.83799  1.0000
  O1          0.14456      0.22878      0.97649  1.0000
  O2          0.78982      0.92059      0.31200  1.0000
  O2          0.10826      0.87958      0.62463  1.0000
  O2          0.89915      0.78182      0.46783  1.0000
  O1          0.22432      0.12259      0.80704  1.0000
  O1          0.93116      0.16193      0.15505  1.0000
  O2          0.22229      0.12000      0.36065  1.0000
  O1          0.93040      0.80582      0.03948  1.0000
  O1          0.86923      0.07180      0.68821  1.0000
  O1          0.78949      0.88885      0.85868  1.0000
  O2          0.10890      0.21366      0.51676  1.0000
  O3          0.12125      0.89574      0.19577  1.0000
  O3          0.93618      0.89400      0.25626  1.0000
  O2          0.15351      0.07437      0.57222  1.0000
  O1          0.97608      0.10815      0.90875  1.0000
  O1          0.09996      0.15106      0.73479  1.0000
  O1          0.89869      0.99567      0.08330  1.0000
  O2          0.08875      0.91766      0.41193  1.0000
  O1          0.90552      0.20037      0.98437  1.0000
  O2          0.79562      0.70660      0.31313  1.0000
  O3          0.29836      0.11384      0.63957  1.0000
  O2          0.11992      0.79189      0.47175  1.0000
  O1          0.18945      0.32901      0.80725  1.0000
  O3          0.71856      0.90238      0.15156  1.0000
  O2          0.20352      0.89487      0.34460  1.0000
  O1          0.70648      0.80923      0.02818  1.0000
  O3          0.08955      0.30450      0.67252  1.0000
  O1          0.80487      0.12734      0.85590  1.0000
  O2          0.32239      0.20767      0.51412  1.0000
  O1          0.86505      0.69300      0.19838  1.0000
  O2          0.35851      0.61854      0.25951  1.0000
  O2          0.36156      0.67499      0.57712  1.0000
  O1          0.34470      0.73164      0.92584  1.0000
  O1          0.69410      0.39553      0.73462  1.0000
  O1          0.62349      0.28369      0.07961  1.0000
  O2          0.68294      0.32365      0.40711  1.0000
  O1          0.39641      0.38239      0.97544  1.0000
  O2          0.66703      0.04690      0.30237  1.0000
  O2          0.97372      0.63057      0.62141  1.0000
  O2          0.65091      0.67114      0.47058  1.0000
  O1          0.32597      0.97417      0.79076  1.0000
  O1          0.06726      0.41949      0.13852  1.0000
  O2          0.34090      0.37263      0.36404  1.0000
  O1          0.01818      0.64705      0.03122  1.0000
  O1          0.61332      0.97689      0.68478  1.0000
  O1          0.67712      0.64270      0.86920  1.0000
  O2          0.97425      0.32765      0.51506  1.0000
  O2          0.36162      0.99432      0.19379  1.0000
  O1          0.79545      0.32955      0.00836  1.0000
  O2          0.69593      0.46930      0.33887  1.0000
  O1          0.54778      0.22408      0.66273  1.0000
  O2          0.25110      0.69299      0.50244  1.0000
  O1          0.28052      0.55112      0.85141  1.0000
  O2          0.49803      0.73937      0.18387  1.0000
  O2          0.30641      0.75695      0.31951  1.0000
  O1          0.46670      0.68461      0.99932  1.0000
  O2          0.22254      0.52974      0.64465  1.0000
  O1          0.74106      0.27943      0.81120  1.0000
  O2          0.55221      0.30176      0.48128  1.0000
  O1          0.71871      0.45303      0.15574  1.0000
  O1          0.75649      0.53785      0.04245  1.0000
  O2          0.46708      0.24814      0.35682  1.0000
  O1          0.77999      0.24086      0.69400  1.0000
  O2          0.22931      0.46249      0.51981  1.0000
  O1          0.53486      0.77753      0.85673  1.0000
  O2          0.20817      0.73994      0.18422  1.0000
  O2          0.54181      0.80080      0.30960  1.0000
  O1          0.23365      0.48304      0.96090  1.0000
  O2          0.22656      0.75430      0.62769  1.0000
  O1          0.48630      0.25035      0.80741  1.0000
  O2          0.76361      0.53243      0.46510  1.0000
  O1          0.78415      0.26171      0.15135  1.0000
  O1          0.25447      0.32805      0.89431  1.0000
  O2          0.67967      0.90807      0.23644  1.0000
  O2          0.11403      0.76708      0.55276  1.0000
  O2          0.77665      0.67623      0.39605  1.0000
  O1          0.35177      0.15780      0.72769  1.0000
  O1          0.88871      0.22784      0.07481  1.0000
  O2          0.34101      0.23476      0.43243  1.0000
  O1          0.91630      0.68719      0.11493  1.0000
  O1          0.75691      0.07913      0.76562  1.0000
  O1          0.67073      0.81509      0.93784  1.0000
  O2          0.09145      0.31900      0.58898  1.0000
  O2          0.21991      0.86085      0.26270  1.0000
  O1          0.63941      0.59315      0.97449  1.0000
  O2          0.43395      0.00712      0.31250  1.0000
  O2          0.96963      0.40917      0.63996  1.0000
  O2          0.44552      0.44461      0.49012  1.0000
  O1          0.55640      0.02069      0.82637  1.0000
  O1          0.97890      0.55009      0.17480  1.0000
  O2          0.56611      0.58992      0.34433  1.0000
  O1          0.06143      0.44227      0.03037  1.0000
  O1          0.37776      0.96431      0.68367  1.0000
  O1          0.44668      0.45570      0.83079  1.0000
  O2          0.99732      0.55490      0.49566  1.0000
  O2          0.57409      0.98954      0.17719  1.0000
  O2          0.56889      0.13312      0.24439  1.0000
  O2          0.85333      0.42016      0.56559  1.0000
  O1          0.55794      0.39959      0.90494  1.0000
  O1          0.43626      0.84572      0.75091  1.0000
  O1          0.16675      0.64727      0.10024  1.0000
  O2          0.43918      0.58059      0.42086  1.0000
  F           0.39329      0.82662      0.23369  1.0000
  F           0.11010      0.54858      0.57054  1.0000
  F           0.45823      0.59167      0.91256  1.0000
  F           0.56983      0.15367      0.74867  1.0000
  F           0.87194      0.44356      0.09091  1.0000
  F           0.55967      0.45057      0.41170  1.0000
