data_cif

_audit_creation_method             'generated by GULP'

_symmetry_space_group_name_H-M     'P 1'
_symmetry_Int_Tables_number        1
_symmetry_cell_setting             triclinic

_cell_length_a                       12.1690
_cell_length_b                       12.2978
_cell_length_c                       30.2848
_cell_angle_alpha                   90.3907
_cell_angle_beta                    90.0388
_cell_angle_gamma                  120.3483

loop_
_atom_site_label
_atom_site_fract_x
_atom_site_fract_y
_atom_site_fract_z
_atom_site_occupancy
  Si          0.69960      0.37570      0.03389  1.0000
  Ge          0.63048      0.31778      0.38005  1.0000
  Si          0.67127      0.27625      0.71804  1.0000
  Si          0.30368      0.62494      0.55408  1.0000
  Si          0.38408      0.66382      0.87389  1.0000
  Ge          0.32144      0.67332      0.21203  1.0000
  Ge          0.38806      0.68433      0.31419  1.0000
  Si          0.33215      0.61787      0.97261  1.0000
  Si          0.28812      0.66402      0.65507  1.0000
  Si          0.61709      0.27802      0.81623  1.0000
  Ge          0.69797      0.37978      0.48346  1.0000
  Ge          0.69418      0.31795      0.13501  1.0000
  Si          0.52680      0.41591      0.97297  1.0000
  Ge          0.59986      0.11743      0.30705  1.0000
  Si          0.87536      0.45167      0.65414  1.0000
  Ge          0.46257      0.57766      0.48799  1.0000
  Si          0.41588      0.87684      0.81547  1.0000
  Ge          0.11421      0.51918      0.13898  1.0000
  Ge          0.41200      0.51767      0.38744  1.0000
  Ge          0.12109      0.57503      0.03841  1.0000
  Si          0.46703      0.87806      0.71651  1.0000
  Si          0.58059      0.45969      0.87426  1.0000
  Ge          0.90685      0.42121      0.55621  1.0000
  Ge          0.54204      0.10472      0.20371  1.0000
  Si          0.30447      0.39041      0.86101  1.0000
  Ge          0.60274      0.88716      0.19105  1.0000
  Si          0.09592      0.69475      0.53754  1.0000
  Ge          0.69092      0.59758      0.36044  1.0000
  Si          0.39533      0.07909      0.70388  1.0000
  Ge          0.89953      0.29311      0.02007  1.0000
  Ge          0.40561      0.29377      0.49914  1.0000
  Ge          0.90480      0.59991      0.15256  1.0000
  Si          0.69469      0.08176      0.82930  1.0000
  Si          0.60918      0.69366      0.98567  1.0000
  Si          0.08989      0.38320      0.66685  1.0000
  Ge          0.31221      0.89730      0.32371  1.0000
  Si          0.24987      0.33831      0.95922  1.0000
  Ge          0.66952      0.91015      0.29121  1.0000
  Si          0.07583      0.73195      0.63866  1.0000
  Ge          0.74576      0.65848      0.46372  1.0000
  Si          0.33732      0.07287      0.80202  1.0000
  Ge          0.90490      0.23790      0.12200  1.0000
  Ge          0.33700      0.23968      0.39765  1.0000
  Ge          0.91970      0.65935      0.05097  1.0000
  Si          0.74447      0.07430      0.73075  1.0000
  Si          0.66220      0.73527      0.88692  1.0000
  Ge          0.09789      0.33734      0.56502  1.0000
  Ge          0.25597      0.89521      0.22238  1.0000
  Si          0.97023      0.11424      0.97174  1.0000
  Ge          0.88615      0.84337      0.31040  1.0000
  Si          0.14516      0.01093      0.65556  1.0000
  Ge          0.03890      0.87811      0.48530  1.0000
  Si          0.12372      0.14001      0.81363  1.0000
  Ge          0.84676      0.95244      0.13658  1.0000
  Ge          0.12772      0.95445      0.38083  1.0000
  Si          0.85905      0.87379      0.03410  1.0000
  Si          0.02430      0.13750      0.71605  1.0000
  Si          0.87696      0.01258      0.87467  1.0000
  Ge          0.16667      0.11417      0.55493  1.0000
  Ge          0.97501      0.84331      0.20722  1.0000
  O2          0.93507      0.00356      0.00683  1.0000
  O1          0.98322      0.89007      0.35649  1.0000
  O2          0.06460      0.05535      0.68565  1.0000
  O1          0.06391      0.98907      0.52396  1.0000
  O2          0.99865      0.06035      0.84307  1.0000
  O1          0.93425      0.93237      0.17682  1.0000
  O1          0.33283      0.57104      0.35257  1.0000
  O2          0.41024      0.75062      0.68602  1.0000
  O3          0.25459      0.65799      0.00353  1.0000
  O2          0.65396      0.40298      0.84553  1.0000
  O1          0.56906      0.22667      0.16819  1.0000
  O1          0.77669      0.34167      0.51960  1.0000
  O2          0.57487      0.34119      0.00393  1.0000
  O2          0.75808      0.40160      0.68884  1.0000
  O1          0.67705      0.24144      0.34374  1.0000
  O3          0.42819      0.66783      0.52535  1.0000
  O1          0.23057      0.54863      0.17795  1.0000
  O2          0.34446      0.74946      0.84445  1.0000
  O2          0.12256      0.21486      0.97764  1.0000
  O1          0.80826      0.92394      0.31333  1.0000
  O2          0.08111      0.85773      0.65893  1.0000
  O1          0.87868      0.79098      0.48391  1.0000
  O2          0.21274      0.07710      0.81954  1.0000
  O1          0.90687      0.11092      0.14276  1.0000
  O1          0.21610      0.11171      0.37017  1.0000
  O3          0.91737      0.78573      0.02508  1.0000
  O2          0.87065      0.07483      0.71219  1.0000
  O2          0.78698      0.86126      0.86779  1.0000
  O1          0.12199      0.22286      0.54427  1.0000
  O1          0.13016      0.89066      0.19524  1.0000
  O1          0.97187      0.86888      0.26319  1.0000
  O3          0.13730      0.05622      0.60795  1.0000
  O2          0.93423      0.04903      0.92361  1.0000
  O2          0.07217      0.12979      0.76432  1.0000
  O3          0.87594      0.91188      0.08513  1.0000
  O1          0.11164      0.94545      0.43747  1.0000
  O3          0.89504      0.18639      0.97997  1.0000
  O1          0.78188      0.68506      0.31646  1.0000
  O2          0.29480      0.07693      0.66802  1.0000
  O3          0.11439      0.79680      0.50206  1.0000
  O2          0.20532      0.28842      0.82514  1.0000
  O1          0.68994      0.87235      0.14752  1.0000
  O1          0.20879      0.88118      0.36561  1.0000
  O2          0.70743      0.79330      0.02199  1.0000
  O2          0.08785      0.28506      0.70342  1.0000
  O2          0.79331      0.07928      0.86513  1.0000
  O1          0.32275      0.18690      0.54130  1.0000
  O1          0.88662      0.68690      0.19433  1.0000
  O1          0.35983      0.62624      0.26009  1.0000
  O2          0.33940      0.66210      0.60602  1.0000
  O2          0.33098      0.66660      0.92266  1.0000
  O2          0.67118      0.33060      0.76708  1.0000
  O3          0.64992      0.29961      0.07946  1.0000
  O1          0.71798      0.35392      0.42812  1.0000
  O2          0.37230      0.33108      0.97714  1.0000
  O1          0.70219      0.06116      0.30192  1.0000
  O2          0.94806      0.60716      0.65567  1.0000
  O1          0.62179      0.68059      0.47775  1.0000
  O2          0.32839      0.94309      0.81922  1.0000
  O1          0.05544      0.36067      0.13163  1.0000
  O1          0.32686      0.35957      0.37355  1.0000
  O1          0.04715      0.66076      0.02734  1.0000
  O2          0.62159      0.94473      0.71211  1.0000
  O2          0.66908      0.61295      0.86944  1.0000
  O1          0.95680      0.31176      0.54493  1.0000
  O1          0.38219      0.00834      0.19391  1.0000
  O3          0.78032      0.32579      0.00732  1.0000
  O1          0.66561      0.45026      0.35032  1.0000
  O2          0.52934      0.20920      0.69553  1.0000
  O2          0.22904      0.69347      0.53591  1.0000
  O2          0.30809      0.52257      0.85180  1.0000
  O1          0.45550      0.76325      0.18042  1.0000
  O1          0.29367      0.75152      0.32098  1.0000
  O2          0.47673      0.69150      0.99284  1.0000
  O2          0.21689      0.52148      0.67419  1.0000
  O2          0.69294      0.21211      0.83728  1.0000
  O1          0.53701      0.28086      0.49329  1.0000
  O1          0.75378      0.47131      0.15041  1.0000
  O3          0.77443      0.52580      0.03972  1.0000
  O1          0.46892      0.22606      0.38753  1.0000
  O2          0.74548      0.19760      0.71187  1.0000
  O3          0.22833      0.47531      0.54540  1.0000
  O2          0.53804      0.73502      0.86774  1.0000
  O1          0.23403      0.74665      0.21950  1.0000
  O1          0.54677      0.79680      0.32138  1.0000
  O2          0.25554      0.46398      0.97797  1.0000
  O2          0.19710      0.72424      0.65597  1.0000
  O2          0.46325      0.19440      0.82150  1.0000
  O1          0.73304      0.53258      0.49147  1.0000
  O1          0.79843      0.26719      0.14861  1.0000
  O2          0.23355      0.32148      0.90621  1.0000
  O1          0.68057      0.87334      0.23684  1.0000
  O2          0.07741      0.74607      0.58578  1.0000
  O1          0.77831      0.66136      0.40855  1.0000
  O2          0.32298      0.07457      0.74913  1.0000
  O1          0.86664      0.20519      0.06683  1.0000
  O1          0.30677      0.23366      0.45366  1.0000
  O1          0.93778      0.69380      0.10643  1.0000
  O2          0.76117      0.07671      0.78361  1.0000
  O2          0.68062      0.75614      0.93964  1.0000
  O3          0.09836      0.31924      0.62230  1.0000
  O1          0.25899      0.93690      0.27702  1.0000
  O2          0.59131      0.55619      0.99484  1.0000
  O1          0.46305      0.01654      0.33564  1.0000
  O2          0.96728      0.39972      0.67203  1.0000
  O1          0.43554      0.44182      0.51397  1.0000
  O2          0.55551      0.96132      0.83800  1.0000
  O1          0.02234      0.56956      0.16662  1.0000
  O1          0.55575      0.60699      0.35956  1.0000
  O1          0.04546      0.42414      0.01650  1.0000
  O2          0.40770      0.95628      0.69353  1.0000
  O2          0.44086      0.40190      0.85143  1.0000
  O3          0.97248      0.56481      0.52485  1.0000
  O1          0.62607      0.03673      0.18359  1.0000
  O1          0.57926      0.16956      0.25641  1.0000
  O3          0.81866      0.40218      0.60618  1.0000
  O2          0.57968      0.41186      0.92406  1.0000
  O2          0.41595      0.82688      0.76564  1.0000
  O1          0.18579      0.59872      0.09069  1.0000
  O1          0.38130      0.55858      0.43944  1.0000
  F           0.48808      0.91174      0.25384  1.0000
  F           0.05693      0.50822      0.59216  1.0000
  F           0.45539      0.53855      0.92196  1.0000
  F           0.54416      0.07905      0.76446  1.0000
  F           0.93480      0.46688      0.08621  1.0000
  F           0.52580      0.46033      0.42596  1.0000
