data_cif

_audit_creation_method             'generated by GULP'

_symmetry_space_group_name_H-M     'P 1'
_symmetry_Int_Tables_number        1
_symmetry_cell_setting             triclinic

_cell_length_a                       12.2227
_cell_length_b                       12.1888
_cell_length_c                       30.1757
_cell_angle_alpha                   90.3205
_cell_angle_beta                    89.1888
_cell_angle_gamma                  120.1818

loop_
_atom_site_label
_atom_site_fract_x
_atom_site_fract_y
_atom_site_fract_z
_atom_site_occupancy
  Ge          0.69960      0.37570      0.03389  1.0000
  Ge          0.67768      0.34154      0.38218  1.0000
  Si          0.71447      0.32984      0.70830  1.0000
  Si          0.33558      0.66150      0.54594  1.0000
  Si          0.41947      0.70990      0.86486  1.0000
  Ge          0.33888      0.69470      0.20480  1.0000
  Ge          0.39523      0.70085      0.30423  1.0000
  Si          0.34243      0.65578      0.96478  1.0000
  Si          0.33491      0.71599      0.64406  1.0000
  Si          0.65288      0.32127      0.80679  1.0000
  Ge          0.72761      0.40844      0.48281  1.0000
  Ge          0.71422      0.32952      0.13412  1.0000
  Si          0.54173      0.43042      0.97051  1.0000
  Ge          0.61281      0.12317      0.31404  1.0000
  Si          0.93310      0.50701      0.64830  1.0000
  Ge          0.49461      0.60808      0.47817  1.0000
  Si          0.45763      0.92350      0.80362  1.0000
  Ge          0.13260      0.54270      0.13116  1.0000
  Ge          0.45616      0.55379      0.37347  1.0000
  Ge          0.12099      0.58852      0.02770  1.0000
  Si          0.51349      0.92914      0.70410  1.0000
  Si          0.61348      0.49529      0.86976  1.0000
  Si          0.93545      0.45070      0.54890  1.0000
  Ge          0.56632      0.12303      0.20895  1.0000
  Si          0.33664      0.42977      0.85269  1.0000
  Ge          0.63376      0.90122      0.19541  1.0000
  Si          0.13266      0.73158      0.53291  1.0000
  Ge          0.74785      0.62177      0.36299  1.0000
  Si          0.44002      0.13323      0.69220  1.0000
  Ge          0.90561      0.29974      0.01639  1.0000
  Ge          0.44202      0.32547      0.49504  1.0000
  Ge          0.91720      0.61508      0.14880  1.0000
  Si          0.73253      0.12572      0.81847  1.0000
  Ge          0.60345      0.70211      0.97388  1.0000
  Si          0.14133      0.44156      0.66069  1.0000
  Ge          0.32365      0.90046      0.33015  1.0000
  Si          0.26849      0.37201      0.95228  1.0000
  Ge          0.68033      0.90418      0.29837  1.0000
  Si          0.12797      0.78433      0.63186  1.0000
  Ge          0.78485      0.68825      0.46600  1.0000
  Si          0.37733      0.11891      0.79103  1.0000
  Ge          0.92066      0.25313      0.11929  1.0000
  Ge          0.39161      0.27035      0.39422  1.0000
  Ge          0.91326      0.66611      0.04657  1.0000
  Si          0.78913      0.12566      0.71965  1.0000
  Si          0.70046      0.77915      0.88080  1.0000
  Si          0.13977      0.38206      0.56256  1.0000
  Ge          0.27463      0.90997      0.22670  1.0000
  Si          0.99126      0.13885      0.96307  1.0000
  Ge          0.91765      0.86984      0.30823  1.0000
  Si          0.19031      0.06206      0.64557  1.0000
  Ge          0.06176      0.91380      0.48410  1.0000
  Si          0.16097      0.18097      0.80353  1.0000
  Ge          0.87574      0.97498      0.13240  1.0000
  Ge          0.15538      0.98965      0.37843  1.0000
  Ge          0.85766      0.89148      0.02468  1.0000
  Si          0.06945      0.18993      0.70634  1.0000
  Si          0.91162      0.05406      0.86383  1.0000
  Si          0.19506      0.15985      0.54831  1.0000
  Ge          0.99854      0.86735      0.20324  1.0000
  O3          0.96453      0.02151      0.99250  1.0000
  O1          0.05239      0.96238      0.33614  1.0000
  O2          0.11269      0.11018      0.67556  1.0000
  O3          0.11350      0.05174      0.51337  1.0000
  O2          0.03580      0.10053      0.83312  1.0000
  O1          0.97765      0.94002      0.15830  1.0000
  O1          0.36037      0.56940      0.33786  1.0000
  O2          0.46050      0.80407      0.67327  1.0000
  O3          0.24345      0.68215      0.99032  1.0000
  O2          0.68629      0.44081      0.83952  1.0000
  O1          0.59766      0.24511      0.17473  1.0000
  O3          0.81514      0.37085      0.51934  1.0000
  O3          0.57192      0.33852      0.99835  1.0000
  O2          0.80567      0.45559      0.67901  1.0000
  O1          0.70987      0.24781      0.34718  1.0000
  O3          0.44910      0.69658      0.51171  1.0000
  O1          0.26193      0.58521      0.16337  1.0000
  O2          0.38453      0.79446      0.83331  1.0000
  O2          0.13881      0.25108      0.96972  1.0000
  O1          0.80966      0.91288      0.32366  1.0000
  O2          0.12948      0.90998      0.65197  1.0000
  O1          0.90400      0.82179      0.49191  1.0000
  O2          0.25055      0.11898      0.80900  1.0000
  O1          0.93202      0.13279      0.14340  1.0000
  O1          0.26348      0.14489      0.36969  1.0000
  O1          0.92200      0.79525      0.02122  1.0000
  O2          0.91740      0.12968      0.70133  1.0000
  O2          0.82140      0.90181      0.85712  1.0000
  O2          0.14218      0.25813      0.54485  1.0000
  O1          0.15876      0.93179      0.20451  1.0000
  O1          0.94567      0.89627      0.25198  1.0000
  O2          0.17109      0.09327      0.59615  1.0000
  O2          0.96647      0.09213      0.91243  1.0000
  O2          0.11043      0.17370      0.75477  1.0000
  O1          0.87560      0.95645      0.07677  1.0000
  O1          0.08383      0.95708      0.42922  1.0000
  O3          0.90322      0.19625      0.97561  1.0000
  O1          0.85361      0.71279      0.32124  1.0000
  O2          0.34058      0.13218      0.65648  1.0000
  O3          0.13559      0.82703      0.49582  1.0000
  O2          0.24350      0.33025      0.81624  1.0000
  O1          0.72586      0.88859      0.15400  1.0000
  O1          0.22611      0.89979      0.37199  1.0000
  O1          0.70248      0.81135      0.01428  1.0000
  O2          0.13897      0.34066      0.69672  1.0000
  O2          0.82997      0.12256      0.85399  1.0000
  O3          0.34143      0.22921      0.53814  1.0000
  O1          0.92297      0.70782      0.19323  1.0000
  O1          0.34900      0.62477      0.25282  1.0000
  O2          0.39263      0.71752      0.59486  1.0000
  O2          0.35930      0.70621      0.91341  1.0000
  O2          0.71156      0.38166      0.75815  1.0000
  O1          0.63801      0.33777      0.08716  1.0000
  O1          0.71659      0.32333      0.43535  1.0000
  O2          0.38619      0.36004      0.96996  1.0000
  O1          0.70331      0.05323      0.30415  1.0000
  O2          0.99987      0.66153      0.65101  1.0000
  O1          0.65283      0.67638      0.49024  1.0000
  O2          0.36913      0.98857      0.80858  1.0000
  O1          0.03424      0.38652      0.14536  1.0000
  O1          0.36763      0.39407      0.38719  1.0000
  O1          0.06209      0.68635      0.03933  1.0000
  O2          0.66775      0.99647      0.70116  1.0000
  O2          0.70051      0.64924      0.86600  1.0000
  O2          0.00993      0.37118      0.54532  1.0000
  O1          0.40993      0.01396      0.19912  1.0000
  O1          0.75495      0.27657      0.01711  1.0000
  O1          0.77240      0.49487      0.36428  1.0000
  O2          0.57401      0.26570      0.68621  1.0000
  O2          0.26407      0.73132      0.52528  1.0000
  O2          0.34806      0.56638      0.84472  1.0000
  O1          0.48339      0.79132      0.17977  1.0000
  O1          0.29896      0.74960      0.33015  1.0000
  O3          0.47364      0.72482      0.98950  1.0000
  O2          0.27107      0.57645      0.66794  1.0000
  O2          0.72792      0.25507      0.82816  1.0000
  O1          0.58615      0.35178      0.51160  1.0000
  O1          0.79718      0.46834      0.16399  1.0000
  O1          0.79956      0.53225      0.02084  1.0000
  O1          0.52029      0.27637      0.36804  1.0000
  O2          0.78638      0.24879      0.70188  1.0000
  O2          0.26202      0.50652      0.54224  1.0000
  O2          0.57165      0.77290      0.86317  1.0000
  O1          0.24293      0.75862      0.21528  1.0000
  O1          0.55245      0.77996      0.32377  1.0000
  O2          0.27182      0.49891      0.97006  1.0000
  O2          0.25442      0.78882      0.64961  1.0000
  O2          0.49889      0.24194      0.81152  1.0000
  O1          0.81611      0.57028      0.47911  1.0000
  O1          0.77076      0.22520      0.13061  1.0000
  O2          0.26658      0.36803      0.89891  1.0000
  O1          0.68371      0.86469      0.24305  1.0000
  O2          0.12559      0.80010      0.57869  1.0000
  O1          0.79933      0.71642      0.40965  1.0000
  O2          0.36558      0.12388      0.73807  1.0000
  O1          0.94724      0.25065      0.06304  1.0000
  O1          0.38400      0.22874      0.44947  1.0000
  O1          0.88075      0.67239      0.10219  1.0000
  O2          0.80243      0.12470      0.77271  1.0000
  O3          0.71983      0.80274      0.93226  1.0000
  O2          0.14112      0.36908      0.61577  1.0000
  O1          0.27027      0.93632      0.28248  1.0000
  O3          0.60258      0.56475      0.99524  1.0000
  O1          0.47617      0.01661      0.34208  1.0000
  O2          0.01741      0.45359      0.67079  1.0000
  O1          0.41775      0.45204      0.49363  1.0000
  O2          0.59472      0.00213      0.82720  1.0000
  O1          0.06651      0.63452      0.14403  1.0000
  O1          0.59719      0.58016      0.34893  1.0000
  O1          0.01242      0.45270      0.00133  1.0000
  O2          0.46004      0.01430      0.68231  1.0000
  O2          0.47535      0.44666      0.84868  1.0000
  O2          0.01190      0.59149      0.52614  1.0000
  O1          0.65570      0.05155      0.19909  1.0000
  O1          0.58278      0.17024      0.26402  1.0000
  O2          0.88471      0.45313      0.59902  1.0000
  O2          0.60125      0.44419      0.91998  1.0000
  O2          0.45970      0.87575      0.75364  1.0000
  O1          0.17618      0.55840      0.07563  1.0000
  O1          0.47893      0.63449      0.42349  1.0000
  F           0.46141      0.86709      0.26638  1.0000
  F           0.14254      0.58770      0.59791  1.0000
  F           0.50494      0.60072      0.92768  1.0000
  F           0.58596      0.13035      0.75737  1.0000
  F           0.88813      0.44350      0.08639  1.0000
  F           0.60073      0.46162      0.43220  1.0000
