data_cif

_audit_creation_method             'generated by GULP'

_symmetry_space_group_name_H-M     'P 1'
_symmetry_Int_Tables_number        1
_symmetry_cell_setting             triclinic

_cell_length_a                       12.1947
_cell_length_b                       12.2196
_cell_length_c                       30.2346
_cell_angle_alpha                   91.1532
_cell_angle_beta                    89.3337
_cell_angle_gamma                  120.3206

loop_
_atom_site_label
_atom_site_fract_x
_atom_site_fract_y
_atom_site_fract_z
_atom_site_occupancy
  Ge          0.69960      0.37570      0.03389  1.0000
  Si          0.61716      0.32343      0.37536  1.0000
  Si          0.66861      0.29183      0.69317  1.0000
  Si          0.28698      0.61310      0.53720  1.0000
  Ge          0.38784      0.69478      0.86675  1.0000
  Ge          0.32483      0.69141      0.21570  1.0000
  Si          0.36955      0.67846      0.31382  1.0000
  Ge          0.33252      0.63609      0.96710  1.0000
  Si          0.27973      0.66866      0.63541  1.0000
  Si          0.63495      0.32012      0.79372  1.0000
  Si          0.67079      0.37535      0.47367  1.0000
  Ge          0.67752      0.30999      0.13333  1.0000
  Ge          0.55322      0.43507      0.96129  1.0000
  Ge          0.57298      0.11140      0.30767  1.0000
  Si          0.88320      0.46508      0.63193  1.0000
  Si          0.46449      0.57148      0.47756  1.0000
  Si          0.40435      0.88891      0.80038  1.0000
  Ge          0.11228      0.53957      0.14776  1.0000
  Si          0.41292      0.51565      0.37817  1.0000
  Ge          0.12711      0.58746      0.04292  1.0000
  Si          0.45432      0.88369      0.69805  1.0000
  Ge          0.60557      0.49224      0.85791  1.0000
  Si          0.88580      0.41222      0.53277  1.0000
  Ge          0.51606      0.10123      0.20284  1.0000
  Ge          0.32194      0.42187      0.83956  1.0000
  Ge          0.59468      0.88533      0.18872  1.0000
  Si          0.09102      0.68989      0.52117  1.0000
  Si          0.69217      0.59741      0.36349  1.0000
  Si          0.38752      0.09486      0.67994  1.0000
  Ge          0.91092      0.30132      0.02167  1.0000
  Si          0.39547      0.29561      0.48887  1.0000
  Ge          0.87939      0.59277      0.15410  1.0000
  Ge          0.69368      0.10299      0.81145  1.0000
  Ge          0.62271      0.72146      0.97740  1.0000
  Si          0.08419      0.39151      0.64735  1.0000
  Ge          0.28138      0.87901      0.32208  1.0000
  Ge          0.26810      0.35771      0.94167  1.0000
  Ge          0.65332      0.90007      0.29349  1.0000
  Si          0.07777      0.74219      0.61967  1.0000
  Si          0.74196      0.65222      0.46235  1.0000
  Ge          0.36814      0.10530      0.77859  1.0000
  Ge          0.90052      0.25330      0.12274  1.0000
  Si          0.33714      0.23993      0.39036  1.0000
  Ge          0.90999      0.66049      0.05217  1.0000
  Si          0.73742      0.08000      0.70983  1.0000
  Ge          0.67524      0.77160      0.87602  1.0000
  Si          0.08205      0.33413      0.54846  1.0000
  Ge          0.22851      0.88200      0.21955  1.0000
  Ge          0.98501      0.12659      0.96414  1.0000
  Si          0.87407      0.84385      0.31412  1.0000
  Si          0.13949      0.02110      0.63255  1.0000
  Si          0.02136      0.86832      0.47498  1.0000
  Ge          0.14083      0.16855      0.79110  1.0000
  Ge          0.85356      0.97405      0.14034  1.0000
  Si          0.11415      0.95985      0.37702  1.0000
  Ge          0.87063      0.89443      0.03574  1.0000
  Si          0.01444      0.14351      0.69504  1.0000
  Ge          0.89160      0.04913      0.86014  1.0000
  Si          0.14447      0.11780      0.53567  1.0000
  Ge          0.94811      0.83767      0.21026  1.0000
  O1          0.96564      0.02803      0.00702  1.0000
  O2          0.99415      0.92568      0.34635  1.0000
  O2          0.06362      0.06590      0.66490  1.0000
  O2          0.06587      0.99291      0.50538  1.0000
  O1          0.03202      0.12714      0.83392  1.0000
  O1          0.91522      0.93985      0.18537  1.0000
  O2          0.33805      0.56535      0.34840  1.0000
  O2          0.39961      0.75518      0.66795  1.0000
  O1          0.25476      0.67023      0.00850  1.0000
  O3          0.69096      0.44971      0.82156  1.0000
  O1          0.54780      0.22037      0.16765  1.0000
  O2          0.75924      0.33836      0.50234  1.0000
  O1          0.58702      0.34283      0.99322  1.0000
  O2          0.75440      0.40948      0.66128  1.0000
  O3          0.65475      0.24370      0.34230  1.0000
  O2          0.41320      0.64760      0.50804  1.0000
  O1          0.22462      0.55616      0.18359  1.0000
  O3          0.33413      0.76906      0.83039  1.0000
  O1          0.14581      0.21762      0.96093  1.0000
  O3          0.78643      0.90582      0.31673  1.0000
  O2          0.07599      0.86830      0.63737  1.0000
  O2          0.86909      0.77679      0.48156  1.0000
  O1          0.22818      0.10122      0.79857  1.0000
  O1          0.91122      0.13105      0.14655  1.0000
  O2          0.21306      0.11184      0.37198  1.0000
  O1          0.92624      0.79198      0.02671  1.0000
  O2          0.86135      0.08232      0.68773  1.0000
  O1          0.79936      0.89290      0.84682  1.0000
  O2          0.08524      0.20972      0.52957  1.0000
  O1          0.10256      0.88563      0.19700  1.0000
  O3          0.93194      0.84964      0.26677  1.0000
  O2          0.12495      0.06436      0.58458  1.0000
  O1          0.92047      0.04890      0.91585  1.0000
  O3          0.04454      0.12798      0.74423  1.0000
  O1          0.89165      0.92931      0.09172  1.0000
  O2          0.05929      0.92151      0.42619  1.0000
  O1          0.91616      0.21499      0.97688  1.0000
  O2          0.78774      0.69475      0.32700  1.0000
  O2          0.29031      0.08530      0.64131  1.0000
  O2          0.09079      0.78805      0.48544  1.0000
  O1          0.23407      0.33073      0.79536  1.0000
  O1          0.69078      0.89039      0.14619  1.0000
  O3          0.18394      0.88404      0.36423  1.0000
  O1          0.71619      0.82406      0.02019  1.0000
  O2          0.08255      0.29330      0.68330  1.0000
  O1          0.79961      0.11794      0.85085  1.0000
  O2          0.29507      0.19794      0.52499  1.0000
  O1          0.85660      0.68389      0.19416  1.0000
  O3          0.30147      0.61640      0.26771  1.0000
  O2          0.33951      0.66956      0.58675  1.0000
  O1          0.35000      0.72148      0.91967  1.0000
  O2          0.66963      0.35251      0.74123  1.0000
  O1          0.62052      0.28636      0.07963  1.0000
  O2          0.67255      0.32166      0.42404  1.0000
  O1          0.39538      0.37952      0.97195  1.0000
  O1          0.64712      0.02546      0.31652  1.0000
  O2          0.94784      0.61877      0.63696  1.0000
  O2          0.61920      0.65897      0.48048  1.0000
  O3          0.32327      0.95850      0.80307  1.0000
  O1          0.04505      0.37988      0.13310  1.0000
  O2          0.32919      0.36126      0.37306  1.0000
  O1          0.02564      0.63994      0.02807  1.0000
  O2          0.60855      0.95318      0.69348  1.0000
  O1          0.70638      0.65072      0.86814  1.0000
  O2          0.95298      0.32544      0.52972  1.0000
  O1          0.35494      0.03128      0.21223  1.0000
  O1          0.79512      0.33190      0.00565  1.0000
  O2          0.68944      0.46476      0.35419  1.0000
  O2          0.52719      0.21948      0.67155  1.0000
  O2          0.22327      0.68857      0.51471  1.0000
  O1          0.29068      0.54240      0.84750  1.0000
  O1          0.46703      0.73491      0.18848  1.0000
  O3          0.31338      0.76140      0.33638  1.0000
  O1          0.47485      0.68829      0.99405  1.0000
  O2          0.21317      0.52703      0.65639  1.0000
  O3          0.70437      0.24934      0.81302  1.0000
  O2          0.52922      0.29872      0.49591  1.0000
  O1          0.72992      0.46228      0.15212  1.0000
  O1          0.75996      0.53615      0.04164  1.0000
  O2          0.46184      0.24154      0.37035  1.0000
  O2          0.73013      0.20173      0.69429  1.0000
  O2          0.20626      0.45961      0.53067  1.0000
  O1          0.54529      0.76513      0.85201  1.0000
  O1          0.23543      0.75912      0.19486  1.0000
  O3          0.52218      0.75918      0.30860  1.0000
  O1          0.23652      0.47686      0.95495  1.0000
  O2          0.20003      0.74256      0.63997  1.0000
  O3          0.48342      0.25142      0.80418  1.0000
  O2          0.74178      0.52861      0.48039  1.0000
  O1          0.76918      0.24523      0.14808  1.0000
  O1          0.27414      0.32867      0.88611  1.0000
  O1          0.67979      0.91601      0.23780  1.0000
  O2          0.08271      0.75704      0.56671  1.0000
  O2          0.75961      0.66839      0.40950  1.0000
  O3          0.32006      0.10806      0.72305  1.0000
  O1          0.87040      0.20624      0.06742  1.0000
  O2          0.32297      0.22565      0.44343  1.0000
  O1          0.92768      0.68874      0.10850  1.0000
  O3          0.75480      0.08028      0.76178  1.0000
  O1          0.68634      0.81446      0.93141  1.0000
  O2          0.08195      0.32016      0.60142  1.0000
  O1          0.19324      0.84707      0.27553  1.0000
  O1          0.64487      0.59332      0.97580  1.0000
  O1          0.41590      0.02467      0.32160  1.0000
  O2          0.96068      0.40585      0.65543  1.0000
  O2          0.41055      0.43291      0.49919  1.0000
  O3          0.54491      0.97948      0.82245  1.0000
  O1          0.99214      0.55926      0.17118  1.0000
  O2          0.55329      0.57996      0.35585  1.0000
  O1          0.06110      0.42926      0.02937  1.0000
  O2          0.40101      0.96915      0.67745  1.0000
  O1          0.47978      0.48017      0.82875  1.0000
  O2          0.97072      0.55087      0.51077  1.0000
  O1          0.55358      0.99736      0.17731  1.0000
  O1          0.59290      0.15623      0.25347  1.0000
  O2          0.83348      0.41357      0.58220  1.0000
  O1          0.57461      0.40922      0.90591  1.0000
  O2          0.41329      0.84553      0.74883  1.0000
  O1          0.16724      0.62027      0.09788  1.0000
  O2          0.41151      0.56633      0.42814  1.0000
  F           0.41753      0.85514      0.25005  1.0000
  F           0.08762      0.54236      0.58493  1.0000
  F           0.47050      0.58590      0.91281  1.0000
  F           0.51165      0.10202      0.75364  1.0000
  F           0.87138      0.42972      0.08862  1.0000
  F           0.54308      0.44130      0.42545  1.0000
