data_cif

_audit_creation_method             'generated by GULP'

_symmetry_space_group_name_H-M     'P 1'
_symmetry_Int_Tables_number        1
_symmetry_cell_setting             triclinic

_cell_length_a                       12.1853
_cell_length_b                       12.3066
_cell_length_c                       30.2834
_cell_angle_alpha                   90.3942
_cell_angle_beta                    89.7810
_cell_angle_gamma                  120.2309

loop_
_atom_site_label
_atom_site_fract_x
_atom_site_fract_y
_atom_site_fract_z
_atom_site_occupancy
  Ge          0.69960      0.37570      0.03389  1.0000
  Ge          0.64095      0.31709      0.38235  1.0000
  Si          0.67086      0.27740      0.71272  1.0000
  Si          0.31182      0.62798      0.55350  1.0000
  Si          0.38672      0.66893      0.87062  1.0000
  Ge          0.32297      0.67684      0.21298  1.0000
  Ge          0.38633      0.68871      0.31495  1.0000
  Si          0.33373      0.61709      0.96857  1.0000
  Si          0.29142      0.66641      0.65387  1.0000
  Si          0.61777      0.28298      0.81087  1.0000
  Ge          0.71159      0.37281      0.48600  1.0000
  Ge          0.69242      0.31701      0.13574  1.0000
  Si          0.52605      0.41001      0.96809  1.0000
  Ge          0.61198      0.11926      0.30944  1.0000
  Si          0.87865      0.45244      0.64962  1.0000
  Ge          0.47469      0.57430      0.49101  1.0000
  Si          0.41746      0.88255      0.81246  1.0000
  Ge          0.11740      0.51483      0.14008  1.0000
  Ge          0.42348      0.52584      0.38740  1.0000
  Ge          0.12540      0.56955      0.03672  1.0000
  Si          0.46909      0.88240      0.71361  1.0000
  Si          0.58142      0.46419      0.86914  1.0000
  Ge          0.93137      0.43242      0.55370  1.0000
  Ge          0.54639      0.10503      0.20571  1.0000
  Si          0.30623      0.39611      0.85536  1.0000
  Ge          0.60526      0.88424      0.19741  1.0000
  Si          0.11100      0.70537      0.53498  1.0000
  Ge          0.71439      0.60226      0.36921  1.0000
  Si          0.39522      0.08107      0.69904  1.0000
  Ge          0.89838      0.28516      0.02212  1.0000
  Ge          0.42846      0.29589      0.50488  1.0000
  Ge          0.90420      0.59374      0.15368  1.0000
  Si          0.69568      0.08736      0.82473  1.0000
  Si          0.60818      0.68796      0.98220  1.0000
  Si          0.09500      0.38709      0.66314  1.0000
  Ge          0.32340      0.90535      0.33046  1.0000
  Si          0.25134      0.34006      0.95333  1.0000
  Ge          0.67559      0.90481      0.29713  1.0000
  Si          0.07948      0.73271      0.63619  1.0000
  Ge          0.76113      0.65435      0.47334  1.0000
  Si          0.33858      0.07780      0.79751  1.0000
  Ge          0.90078      0.23280      0.12463  1.0000
  Ge          0.36389      0.25376      0.40496  1.0000
  Ge          0.92167      0.65339      0.05188  1.0000
  Si          0.74589      0.07741      0.72627  1.0000
  Si          0.66443      0.73969      0.88372  1.0000
  Si          0.11463      0.34187      0.56278  1.0000
  Ge          0.26104      0.89870      0.22808  1.0000
  Si          0.97416      0.11579      0.96784  1.0000
  Ge          0.89640      0.84774      0.31249  1.0000
  Si          0.14356      0.00757      0.65144  1.0000
  Ge          0.04296      0.88088      0.48509  1.0000
  Si          0.12513      0.14521      0.80898  1.0000
  Ge          0.84718      0.95281      0.13833  1.0000
  Ge          0.13952      0.97047      0.38267  1.0000
  Ge          0.86089      0.87514      0.03230  1.0000
  Si          0.02514      0.13850      0.71137  1.0000
  Si          0.87762      0.01846      0.87021  1.0000
  Ge          0.17911      0.12018      0.55341  1.0000
  Ge          0.97387      0.84146      0.20702  1.0000
  O3          0.95097      0.00250      0.99849  1.0000
  O1          0.03883      0.92799      0.33811  1.0000
  O2          0.06519      0.05727      0.68027  1.0000
  O1          0.09344      0.01910      0.51173  1.0000
  O2          0.99969      0.06613      0.83843  1.0000
  O1          0.94911      0.91927      0.16537  1.0000
  O1          0.34209      0.57179      0.35309  1.0000
  O2          0.41268      0.75300      0.68456  1.0000
  O3          0.25614      0.65393      0.00179  1.0000
  O2          0.65480      0.40854      0.83965  1.0000
  O1          0.57020      0.22533      0.17109  1.0000
  O1          0.80803      0.34383      0.51642  1.0000
  O3          0.56999      0.33445      0.99844  1.0000
  O2          0.75880      0.40179      0.68330  1.0000
  O1          0.69026      0.24482      0.34448  1.0000
  O3          0.43680      0.66654      0.52586  1.0000
  O1          0.23510      0.55125      0.17809  1.0000
  O2          0.34752      0.75619      0.84198  1.0000
  O2          0.12499      0.21858      0.97176  1.0000
  O1          0.80100      0.90783      0.32512  1.0000
  O2          0.08187      0.85605      0.65771  1.0000
  O1          0.88780      0.78136      0.49829  1.0000
  O2          0.21453      0.08294      0.81518  1.0000
  O1          0.90253      0.11002      0.14928  1.0000
  O1          0.22253      0.12719      0.38377  1.0000
  O1          0.93336      0.78941      0.02993  1.0000
  O2          0.87217      0.07737      0.70790  1.0000
  O2          0.78846      0.86662      0.86467  1.0000
  O3          0.13805      0.23423      0.54551  1.0000
  O1          0.13454      0.90400      0.20643  1.0000
  O1          0.92253      0.86439      0.25667  1.0000
  O3          0.12626      0.03672      0.60192  1.0000
  O2          0.93316      0.05818      0.91875  1.0000
  O2          0.07367      0.13182      0.75949  1.0000
  O1          0.86166      0.93688      0.08262  1.0000
  O1          0.05165      0.90165      0.42939  1.0000
  O3          0.89473      0.18032      0.98166  1.0000
  O1          0.81680      0.69276      0.32785  1.0000
  O2          0.29379      0.07752      0.66311  1.0000
  O3          0.13464      0.81560      0.50167  1.0000
  O2          0.20707      0.29427      0.81949  1.0000
  O1          0.69582      0.86653      0.15525  1.0000
  O1          0.23691      0.90812      0.37463  1.0000
  O3          0.70070      0.78203      0.01908  1.0000
  O2          0.09027      0.28569      0.69827  1.0000
  O2          0.79395      0.08467      0.86026  1.0000
  O1          0.33766      0.19417      0.54784  1.0000
  O1          0.89997      0.68330      0.19702  1.0000
  O1          0.34892      0.62389      0.26247  1.0000
  O2          0.34541      0.66718      0.60502  1.0000
  O2          0.33122      0.66990      0.91948  1.0000
  O2          0.67084      0.33353      0.76143  1.0000
  O1          0.63470      0.29556      0.08253  1.0000
  O1          0.72421      0.34261      0.43064  1.0000
  O2          0.37127      0.32984      0.97097  1.0000
  O1          0.70960      0.05758      0.30290  1.0000
  O2          0.95021      0.60787      0.65174  1.0000
  O1          0.63365      0.67533      0.48142  1.0000
  O2          0.32995      0.94896      0.81560  1.0000
  O1          0.05313      0.35723      0.13062  1.0000
  O1          0.34983      0.36775      0.37718  1.0000
  O1          0.04361      0.64673      0.02641  1.0000
  O2          0.62306      0.94771      0.70843  1.0000
  O2          0.67002      0.61745      0.86517  1.0000
  O3          0.98652      0.32347      0.54346  1.0000
  O1          0.38561      0.00809      0.19814  1.0000
  O1          0.78191      0.31562      0.00644  1.0000
  O1          0.68357      0.45539      0.35529  1.0000
  O2          0.52919      0.21051      0.69030  1.0000
  O2          0.24196      0.69908      0.53348  1.0000
  O2          0.31103      0.52943      0.84729  1.0000
  O1          0.46104      0.75800      0.18326  1.0000
  O1          0.29427      0.75408      0.32723  1.0000
  O2          0.47612      0.68758      0.98912  1.0000
  O2          0.22028      0.52371      0.67289  1.0000
  O2          0.69394      0.21782      0.83212  1.0000
  O1          0.55554      0.27451      0.50233  1.0000
  O1          0.75086      0.46975      0.15244  1.0000
  O1          0.77282      0.53622      0.03650  1.0000
  O1          0.47841      0.22125      0.38527  1.0000
  O2          0.74594      0.19946      0.70680  1.0000
  O2          0.23413      0.47615      0.54592  1.0000
  O2          0.54076      0.74150      0.86528  1.0000
  O1          0.23369      0.74872      0.21948  1.0000
  O1          0.54489      0.79063      0.32441  1.0000
  O2          0.25390      0.46374      0.97285  1.0000
  O2          0.19896      0.72469      0.65493  1.0000
  O2          0.46428      0.19951      0.81641  1.0000
  O1          0.73833      0.52150      0.49823  1.0000
  O1          0.79365      0.26287      0.15023  1.0000
  O2          0.23520      0.32560      0.90030  1.0000
  O1          0.68425      0.86961      0.24261  1.0000
  O2          0.08970      0.75427      0.58347  1.0000
  O1          0.79673      0.65651      0.41814  1.0000
  O2          0.32388      0.07781      0.74455  1.0000
  O1          0.86142      0.19819      0.06958  1.0000
  O1          0.32772      0.22600      0.46057  1.0000
  O1          0.94035      0.68753      0.10765  1.0000
  O2          0.76227      0.08117      0.77911  1.0000
  O2          0.68320      0.75512      0.93662  1.0000
  O2          0.10956      0.33169      0.61675  1.0000
  O1          0.26876      0.93905      0.28305  1.0000
  O2          0.58936      0.54987      0.99014  1.0000
  O1          0.47994      0.01217      0.33874  1.0000
  O2          0.97123      0.40121      0.66790  1.0000
  O1          0.45182      0.44267      0.51820  1.0000
  O2          0.55689      0.96813      0.83433  1.0000
  O1          0.01644      0.55450      0.16625  1.0000
  O1          0.57930      0.61265      0.36974  1.0000
  O1          0.04746      0.41424      0.02131  1.0000
  O2          0.40868      0.95848      0.68965  1.0000
  O2          0.44300      0.40872      0.84592  1.0000
  O3          0.99059      0.57622      0.52091  1.0000
  O1          0.62759      0.03233      0.18728  1.0000
  O1          0.58372      0.16513      0.25916  1.0000
  O3          0.82900      0.40488      0.60127  1.0000
  O2          0.57895      0.41243      0.91833  1.0000
  O2          0.41800      0.83218      0.76284  1.0000
  O1          0.17732      0.59364      0.09077  1.0000
  O1          0.39678      0.55257      0.44178  1.0000
  F           0.48219      0.89447      0.25457  1.0000
  F           0.06781      0.52340      0.59033  1.0000
  F           0.45459      0.54290      0.91735  1.0000
  F           0.54556      0.08293      0.75973  1.0000
  F           0.89731      0.44967      0.08413  1.0000
  F           0.53591      0.42438      0.43298  1.0000
