data_cif

_audit_creation_method             'generated by GULP'

_symmetry_space_group_name_H-M     'P 1'
_symmetry_Int_Tables_number        1
_symmetry_cell_setting             triclinic

_cell_length_a                       12.2605
_cell_length_b                       12.2022
_cell_length_c                       30.1697
_cell_angle_alpha                   91.4889
_cell_angle_beta                    89.9187
_cell_angle_gamma                  120.3064

loop_
_atom_site_label
_atom_site_fract_x
_atom_site_fract_y
_atom_site_fract_z
_atom_site_occupancy
  Ge          0.69960      0.37570      0.03389  1.0000
  Si          0.65090      0.34155      0.36373  1.0000
  Ge          0.72695      0.33329      0.68927  1.0000
  Si          0.33617      0.63286      0.52944  1.0000
  Ge          0.37899      0.70391      0.87025  1.0000
  Si          0.33916      0.67750      0.20953  1.0000
  Si          0.41659      0.71520      0.30968  1.0000
  Ge          0.33422      0.63524      0.97177  1.0000
  Si          0.32615      0.68738      0.62763  1.0000
  Ge          0.67012      0.32889      0.78893  1.0000
  Si          0.71655      0.39640      0.46233  1.0000
  Ge          0.68778      0.31562      0.13671  1.0000
  Ge          0.53807      0.40949      0.95899  1.0000
  Si          0.61014      0.12353      0.30056  1.0000
  Si          0.92914      0.49579      0.62095  1.0000
  Si          0.51764      0.59845      0.47011  1.0000
  Ge          0.43989      0.92026      0.80245  1.0000
  Ge          0.11562      0.52541      0.14806  1.0000
  Si          0.45790      0.54532      0.37061  1.0000
  Ge          0.12893      0.58259      0.04483  1.0000
  Ge          0.48165      0.89926      0.69819  1.0000
  Ge          0.58729      0.46842      0.85372  1.0000
  Si          0.93405      0.43587      0.52166  1.0000
  Si          0.53998      0.10137      0.19966  1.0000
  Ge          0.31130      0.42642      0.85469  1.0000
  Ge          0.60111      0.89182      0.19925  1.0000
  Si          0.14320      0.71149      0.51161  1.0000
  Si          0.73093      0.61783      0.35370  1.0000
  Ge          0.43040      0.13284      0.68464  1.0000
  Ge          0.90783      0.29144      0.02436  1.0000
  Si          0.44440      0.32071      0.48013  1.0000
  Ge          0.89514      0.59098      0.16075  1.0000
  Ge          0.73766      0.13185      0.81619  1.0000
  Ge          0.61885      0.70267      0.98296  1.0000
  Si          0.12235      0.41271      0.63927  1.0000
  Si          0.33222      0.91161      0.31839  1.0000
  Ge          0.25540      0.34295      0.95133  1.0000
  Si          0.69703      0.92665      0.29309  1.0000
  Si          0.13393      0.77076      0.60972  1.0000
  Si          0.79127      0.67576      0.45267  1.0000
  Ge          0.37692      0.14132      0.78770  1.0000
  Ge          0.90428      0.23996      0.12799  1.0000
  Si          0.37765      0.26923      0.38159  1.0000
  Ge          0.91659      0.64969      0.06049  1.0000
  Ge          0.77741      0.10681      0.71149  1.0000
  Ge          0.66465      0.75906      0.87978  1.0000
  Si          0.12733      0.35511      0.54017  1.0000
  Si          0.26552      0.88802      0.21845  1.0000
  Ge          0.98347      0.11398      0.96962  1.0000
  Si          0.90950      0.87049      0.31013  1.0000
  Si          0.18699      0.04928      0.62581  1.0000
  Si          0.07352      0.89057      0.46663  1.0000
  Ge          0.14153      0.18141      0.79650  1.0000
  Ge          0.85179      0.96308      0.14695  1.0000
  Si          0.16040      0.98943      0.36932  1.0000
  Ge          0.86473      0.87889      0.04175  1.0000
  Ge          0.05693      0.16232      0.68982  1.0000
  Ge          0.90297      0.04106      0.86329  1.0000
  Si          0.19624      0.14286      0.52749  1.0000
  Ge          0.98651      0.84777      0.21019  1.0000
  O1          0.94020      0.98633      0.00090  1.0000
  O2          0.03196      0.94441      0.34232  1.0000
  O3          0.08876      0.07069      0.65327  1.0000
  O2          0.11658      0.01407      0.49811  1.0000
  O1          0.00474      0.07085      0.82094  1.0000
  O1          0.95804      0.93350      0.17372  1.0000
  O2          0.38298      0.59949      0.34236  1.0000
  O3          0.43751      0.76755      0.66297  1.0000
  O1          0.25922      0.67065      0.01305  1.0000
  O1          0.69612      0.46213      0.82107  1.0000
  O3          0.55991      0.21590      0.16996  1.0000
  O2          0.80815      0.36108      0.49003  1.0000
  O1          0.58410      0.33012      0.99393  1.0000
  O3          0.80545      0.44942      0.64970  1.0000
  O2          0.68215      0.25453      0.33011  1.0000
  O2          0.46402      0.67000      0.50170  1.0000
  O3          0.23687      0.54950      0.18517  1.0000
  O1          0.35035      0.80263      0.83855  1.0000
  O1          0.13845      0.22102      0.98066  1.0000
  O2          0.81782      0.93000      0.31799  1.0000
  O2          0.13777      0.89820      0.62785  1.0000
  O2          0.92134      0.79947      0.47113  1.0000
  O1          0.24494      0.12953      0.80987  1.0000
  O1          0.90343      0.12176      0.15679  1.0000
  O2          0.25020      0.14136      0.36374  1.0000
  O1          0.93235      0.78887      0.03973  1.0000
  O1          0.89692      0.08837      0.68892  1.0000
  O1          0.79149      0.88450      0.85581  1.0000
  O2          0.13338      0.23157      0.52116  1.0000
  O3          0.14232      0.88328      0.20012  1.0000
  O3          0.96979      0.89756      0.26254  1.0000
  O2          0.18593      0.09668      0.57669  1.0000
  O1          0.96960      0.06690      0.91483  1.0000
  O1          0.11886      0.16148      0.73942  1.0000
  O1          0.87775      0.95511      0.09102  1.0000
  O2          0.11721      0.94778      0.41868  1.0000
  O1          0.90012      0.18888      0.98226  1.0000
  O2          0.82662      0.71833      0.31790  1.0000
  O3          0.32755      0.12993      0.64376  1.0000
  O2          0.14180      0.80911      0.47585  1.0000
  O1          0.19605      0.33139      0.81233  1.0000
  O1          0.69843      0.87431      0.15953  1.0000
  O2          0.23987      0.92174      0.35433  1.0000
  O1          0.70614      0.78963      0.02802  1.0000
  O3          0.12007      0.32120      0.67632  1.0000
  O1          0.83071      0.12988      0.85812  1.0000
  O2          0.34556      0.22356      0.51587  1.0000
  O1          0.89490      0.68876      0.20399  1.0000
  O2          0.35657      0.65171      0.26151  1.0000
  O2          0.38814      0.68879      0.57948  1.0000
  O1          0.30312      0.67647      0.92088  1.0000
  O1          0.72308      0.40524      0.73819  1.0000
  O1          0.63436      0.29727      0.08300  1.0000
  O2          0.71051      0.34080      0.41198  1.0000
  O1          0.37800      0.31272      0.95442  1.0000
  O2          0.69662      0.05793      0.30610  1.0000
  O2          0.00257      0.65048      0.62600  1.0000
  O2          0.67206      0.68503      0.47263  1.0000
  O1          0.35227      0.98943      0.79211  1.0000
  O1          0.05407      0.36784      0.13485  1.0000
  O2          0.36899      0.39095      0.36526  1.0000
  O1          0.04193      0.65340      0.03405  1.0000
  O1          0.64019      0.98986      0.68757  1.0000
  O1          0.64003      0.63059      0.85002  1.0000
  O2          0.00035      0.34809      0.51981  1.0000
  O2          0.38621      0.01534      0.20124  1.0000
  O1          0.79315      0.32368      0.00967  1.0000
  O2          0.72545      0.48338      0.34311  1.0000
  O1          0.57733      0.24005      0.66614  1.0000
  O2          0.27385      0.70831      0.50575  1.0000
  O1          0.31537      0.56474      0.83970  1.0000
  O3          0.47041      0.73656      0.18498  1.0000
  O2          0.34540      0.78891      0.32852  1.0000
  O1          0.49290      0.72792      0.98186  1.0000
  O2          0.25291      0.54651      0.64804  1.0000
  O1          0.76658      0.28430      0.81573  1.0000
  O2          0.57735      0.32158      0.48526  1.0000
  O1          0.74217      0.46662      0.15792  1.0000
  O1          0.76889      0.53761      0.03912  1.0000
  O2          0.49731      0.26728      0.35989  1.0000
  O1          0.80749      0.25310      0.69568  1.0000
  O2          0.25386      0.47894      0.52336  1.0000
  O1          0.54106      0.78782      0.87574  1.0000
  O2          0.26923      0.76241      0.20234  1.0000
  O2          0.56840      0.80587      0.31158  1.0000
  O1          0.27712      0.47692      0.97969  1.0000
  O2          0.25518      0.77071      0.63088  1.0000
  O1          0.51405      0.25404      0.81218  1.0000
  O2          0.78919      0.55009      0.46935  1.0000
  O1          0.79440      0.27085      0.15068  1.0000
  O1          0.20905      0.33300      0.89720  1.0000
  O3          0.71664      0.91377      0.24184  1.0000
  O2          0.13817      0.78353      0.55655  1.0000
  O2          0.80232      0.68987      0.39959  1.0000
  O1          0.38684      0.18010      0.73170  1.0000
  O1          0.87255      0.20544      0.07204  1.0000
  O2          0.36804      0.25352      0.43451  1.0000
  O1          0.92783      0.68944      0.11666  1.0000
  O1          0.78780      0.09241      0.76754  1.0000
  O1          0.70318      0.75807      0.93501  1.0000
  O2          0.11997      0.33841      0.59319  1.0000
  O2          0.25987      0.89327      0.27214  1.0000
  O1          0.56883      0.54573      0.98853  1.0000
  O2          0.47068      0.03584      0.32087  1.0000
  O2          0.00093      0.43070      0.64479  1.0000
  O2          0.46484      0.45999      0.49131  1.0000
  O1          0.58301      0.02259      0.82759  1.0000
  O1          0.00941      0.55544      0.17482  1.0000
  O2          0.59343      0.60296      0.34615  1.0000
  O1          0.05485      0.42545      0.02690  1.0000
  O1          0.40691      0.98220      0.68738  1.0000
  O1          0.42957      0.39606      0.83803  1.0000
  O2          0.02143      0.57366      0.50001  1.0000
  O3          0.60286      0.02735      0.17633  1.0000
  O2          0.60149      0.15724      0.24967  1.0000
  O2          0.88180      0.44229      0.57044  1.0000
  O1          0.60809      0.43502      0.90848  1.0000
  O1          0.46163      0.85768      0.75284  1.0000
  O1          0.17556      0.60729      0.10017  1.0000
  O2          0.46300      0.59705      0.42096  1.0000
  F           0.50348      0.90135      0.24464  1.0000
  F           0.13777      0.56803      0.57512  1.0000
  F           0.42787      0.53343      0.90626  1.0000
  F           0.60214      0.16614      0.75213  1.0000
  F           0.89867      0.46999      0.08993  1.0000
  F           0.58674      0.46781      0.41540  1.0000
