data_cif

_audit_creation_method             'generated by GULP'

_symmetry_space_group_name_H-M     'P 1'
_symmetry_Int_Tables_number        1
_symmetry_cell_setting             triclinic

_cell_length_a                       12.1931
_cell_length_b                       12.2488
_cell_length_c                       30.3152
_cell_angle_alpha                   89.4655
_cell_angle_beta                    90.7170
_cell_angle_gamma                  120.1475

loop_
_atom_site_label
_atom_site_fract_x
_atom_site_fract_y
_atom_site_fract_z
_atom_site_occupancy
  Ge          0.69960      0.37570      0.03389  1.0000
  Ge          0.58589      0.29352      0.37824  1.0000
  Si          0.63028      0.25651      0.70168  1.0000
  Si          0.25944      0.60552      0.54893  1.0000
  Si          0.35082      0.65237      0.86409  1.0000
  Ge          0.31865      0.69119      0.21298  1.0000
  Ge          0.36833      0.68041      0.31666  1.0000
  Si          0.30752      0.61085      0.96532  1.0000
  Si          0.24790      0.64330      0.64736  1.0000
  Si          0.58286      0.26541      0.79948  1.0000
  Si          0.64776      0.35986      0.47969  1.0000
  Ge          0.69624      0.31157      0.13497  1.0000
  Ge          0.51801      0.39808      0.96321  1.0000
  Ge          0.58049      0.10120      0.31043  1.0000
  Si          0.84591      0.43500      0.64222  1.0000
  Ge          0.42685      0.56729      0.48435  1.0000
  Si          0.38457      0.86803      0.80474  1.0000
  Ge          0.12162      0.53098      0.13670  1.0000
  Ge          0.38007      0.49746      0.38515  1.0000
  Ge          0.11862      0.58830      0.03425  1.0000
  Si          0.42741      0.85859      0.70607  1.0000
  Si          0.55357      0.44523      0.85985  1.0000
  Si          0.85984      0.40095      0.54316  1.0000
  Ge          0.53814      0.11372      0.21044  1.0000
  Si          0.26987      0.37500      0.84670  1.0000
  Ge          0.61023      0.90098      0.20068  1.0000
  Si          0.05953      0.67905      0.53393  1.0000
  Ge          0.65722      0.58133      0.35835  1.0000
  Si          0.35329      0.06004      0.68990  1.0000
  Ge          0.90783      0.30299      0.01488  1.0000
  Ge          0.36926      0.28286      0.49909  1.0000
  Ge          0.90620      0.59640      0.15199  1.0000
  Si          0.66254      0.07097      0.81604  1.0000
  Si          0.58872      0.67998      0.97676  1.0000
  Si          0.05360      0.36640      0.65598  1.0000
  Ge          0.30262      0.89750      0.33337  1.0000
  Ge          0.25399      0.34668      0.94546  1.0000
  Ge          0.65813      0.90220      0.30418  1.0000
  Si          0.04163      0.71321      0.63273  1.0000
  Ge          0.71021      0.64310      0.46230  1.0000
  Si          0.30349      0.06188      0.78843  1.0000
  Ge          0.91427      0.24503      0.11650  1.0000
  Ge          0.29204      0.21717      0.39695  1.0000
  Ge          0.91162      0.66046      0.05135  1.0000
  Si          0.70516      0.05513      0.71779  1.0000
  Si          0.63472      0.72320      0.87581  1.0000
  Si          0.05940      0.32472      0.55698  1.0000
  Ge          0.25174      0.90831      0.23178  1.0000
  Ge          0.96334      0.11943      0.96054  1.0000
  Ge          0.86169      0.82058      0.30675  1.0000
  Si          0.09920      0.98692      0.64377  1.0000
  Si          0.98922      0.85182      0.48128  1.0000
  Si          0.08918      0.12699      0.80098  1.0000
  Ge          0.84262      0.95655      0.13592  1.0000
  Ge          0.09252      0.92558      0.38098  1.0000
  Ge          0.83462      0.87297      0.03030  1.0000
  Si          0.98299      0.11611      0.70397  1.0000
  Si          0.84564      0.00364      0.86365  1.0000
  Ge          0.11529      0.09772      0.54533  1.0000
  Ge          0.96600      0.84158      0.20508  1.0000
  O1          0.91960      0.00703      0.00121  1.0000
  O1          0.99499      0.85567      0.33656  1.0000
  O2          0.02461      0.03602      0.67394  1.0000
  O3          0.04090      0.98527      0.50483  1.0000
  O2          0.97154      0.05411      0.83399  1.0000
  O1          0.94401      0.91721      0.16066  1.0000
  O1          0.30322      0.55344      0.34954  1.0000
  O2          0.37093      0.72826      0.67849  1.0000
  O3          0.24604      0.66744      0.99722  1.0000
  O2          0.62219      0.39302      0.82729  1.0000
  O1          0.57348      0.22785      0.17027  1.0000
  O2          0.73799      0.32863      0.51089  1.0000
  O1          0.57894      0.32699      0.99534  1.0000
  O2          0.71612      0.37795      0.67044  1.0000
  O1          0.65080      0.22872      0.34747  1.0000
  O3          0.38398      0.64960      0.52069  1.0000
  O1          0.24379      0.57316      0.17465  1.0000
  O2          0.31436      0.74244      0.83571  1.0000
  O1          0.12001      0.20751      0.96462  1.0000
  O1          0.78821      0.89839      0.32611  1.0000
  O2          0.04006      0.83611      0.65247  1.0000
  O3          0.84113      0.76460      0.48973  1.0000
  O2          0.17987      0.06521      0.80667  1.0000
  O1          0.91519      0.11755      0.14006  1.0000
  O1          0.15755      0.08527      0.37784  1.0000
  O1          0.91279      0.79164      0.02868  1.0000
  O2          0.83016      0.05478      0.69938  1.0000
  O2          0.75351      0.85114      0.85588  1.0000
  O3          0.06095      0.20434      0.53750  1.0000
  O1          0.12689      0.91509      0.20796  1.0000
  O1          0.90402      0.86161      0.25274  1.0000
  O3          0.07391      0.01648      0.59481  1.0000
  O3          0.89179      0.03113      0.91301  1.0000
  O2          0.02660      0.10541      0.75293  1.0000
  O1          0.81235      0.91307      0.08187  1.0000
  O3          0.00872      0.87095      0.42932  1.0000
  O1          0.89645      0.21105      0.97083  1.0000
  O1          0.75458      0.66391      0.31467  1.0000
  O2          0.25095      0.05636      0.65381  1.0000
  O2          0.06430      0.78009      0.49821  1.0000
  O2          0.17566      0.27807      0.80845  1.0000
  O1          0.69941      0.88081      0.16148  1.0000
  O1          0.20915      0.88884      0.37761  1.0000
  O3          0.67894      0.78262      0.01141  1.0000
  O2          0.05044      0.26400      0.69125  1.0000
  O2          0.76362      0.07181      0.85191  1.0000
  O1          0.27500      0.18113      0.54080  1.0000
  O1          0.89891      0.68410      0.19547  1.0000
  O1          0.35331      0.63871      0.26104  1.0000
  O2          0.30791      0.65194      0.59915  1.0000
  O2          0.29998      0.64743      0.91347  1.0000
  O2          0.63467      0.31563      0.74998  1.0000
  O1          0.64040      0.34490      0.08687  1.0000
  O3          0.66107      0.32782      0.43010  1.0000
  O1          0.35864      0.30481      0.96979  1.0000
  O1          0.69256      0.05417      0.31265  1.0000
  O2          0.91132      0.58784      0.64780  1.0000
  O1          0.58833      0.66676      0.47623  1.0000
  O2          0.29750      0.93450      0.80829  1.0000
  O1          0.02981      0.37130      0.14546  1.0000
  O1          0.28275      0.33817      0.37276  1.0000
  O1          0.06336      0.69124      0.04083  1.0000
  O2          0.58127      0.92433      0.70170  1.0000
  O2          0.63556      0.59999      0.85686  1.0000
  O2          0.93056      0.31895      0.53860  1.0000
  O1          0.37772      0.01979      0.20187  1.0000
  O1          0.75792      0.27880      0.02115  1.0000
  O1          0.63037      0.43296      0.35089  1.0000
  O2          0.48688      0.18955      0.68072  1.0000
  O2          0.19101      0.67885      0.52731  1.0000
  O2          0.27923      0.51291      0.84161  1.0000
  O1          0.45624      0.79652      0.18652  1.0000
  O1          0.27634      0.74930      0.32631  1.0000
  O2          0.45516      0.67677      0.98066  1.0000
  O2          0.18155      0.49969      0.66702  1.0000
  O2          0.65943      0.20139      0.82257  1.0000
  O3          0.50406      0.27027      0.49593  1.0000
  O1          0.79081      0.44669      0.16501  1.0000
  O1          0.79457      0.53424      0.02299  1.0000
  O1          0.42261      0.20681      0.38281  1.0000
  O2          0.70182      0.17528      0.69704  1.0000
  O2          0.18509      0.45191      0.54011  1.0000
  O2          0.50320      0.71524      0.86161  1.0000
  O1          0.22875      0.75892      0.22491  1.0000
  O1          0.52347      0.79382      0.33031  1.0000
  O3          0.22849      0.46023      0.97287  1.0000
  O2          0.16335      0.71105      0.65317  1.0000
  O2          0.42950      0.18623      0.80614  1.0000
  O3          0.68637      0.50439      0.48650  1.0000
  O1          0.76466      0.22167      0.12368  1.0000
  O3          0.19719      0.30349      0.88988  1.0000
  O1          0.65964      0.86543      0.24925  1.0000
  O2          0.05013      0.73900      0.58020  1.0000
  O1          0.74003      0.65237      0.40717  1.0000
  O2          0.28508      0.05872      0.73553  1.0000
  O1          0.95254      0.25227      0.06159  1.0000
  O1          0.27451      0.21539      0.45373  1.0000
  O1          0.87904      0.66546      0.10616  1.0000
  O2          0.72622      0.06300      0.77058  1.0000
  O2          0.65283      0.72969      0.92841  1.0000
  O2          0.05856      0.30291      0.60999  1.0000
  O1          0.25038      0.94258      0.28637  1.0000
  O3          0.57850      0.54774      0.98746  1.0000
  O1          0.45124      0.01656      0.34532  1.0000
  O2          0.92829      0.37691      0.66391  1.0000
  O1          0.40144      0.43122      0.51124  1.0000
  O2          0.52517      0.94973      0.82673  1.0000
  O1          0.05806      0.62088      0.15379  1.0000
  O1          0.52084      0.58660      0.35427  1.0000
  O1          0.01223      0.45889      0.00437  1.0000
  O2          0.36950      0.93854      0.68219  1.0000
  O2          0.41053      0.39324      0.84106  1.0000
  O2          0.93699      0.54302      0.52259  1.0000
  O1          0.63424      0.05134      0.19741  1.0000
  O1          0.57632      0.17934      0.26238  1.0000
  O2          0.80088      0.39116      0.59180  1.0000
  O3          0.56503      0.40014      0.90827  1.0000
  O2          0.37995      0.81293      0.75605  1.0000
  O1          0.17867      0.56560      0.08319  1.0000
  O1          0.35034      0.54950      0.43536  1.0000
  F           0.47722      0.93787      0.26813  1.0000
  F           0.05674      0.52076      0.59406  1.0000
  F           0.40239      0.48804      0.92021  1.0000
  F           0.50754      0.06535      0.75364  1.0000
  F           0.91461      0.46824      0.08688  1.0000
  F           0.48388      0.44508      0.42220  1.0000
