data_cif

_audit_creation_method             'generated by GULP'

_symmetry_space_group_name_H-M     'P 1'
_symmetry_Int_Tables_number        1
_symmetry_cell_setting             triclinic

_cell_length_a                       12.3469
_cell_length_b                       12.1165
_cell_length_c                       30.0941
_cell_angle_alpha                   92.1243
_cell_angle_beta                    89.8963
_cell_angle_gamma                  120.3544

loop_
_atom_site_label
_atom_site_fract_x
_atom_site_fract_y
_atom_site_fract_z
_atom_site_occupancy
  Ge          0.69960      0.37570      0.03389  1.0000
  Si          0.63369      0.32812      0.37818  1.0000
  Si          0.70127      0.31671      0.69559  1.0000
  Si          0.32163      0.62805      0.54402  1.0000
  Ge          0.37901      0.70901      0.87326  1.0000
  Ge          0.33781      0.68511      0.21980  1.0000
  Si          0.38497      0.68214      0.31861  1.0000
  Ge          0.33075      0.64557      0.97580  1.0000
  Si          0.30489      0.68346      0.64268  1.0000
  Ge          0.65263      0.31709      0.79341  1.0000
  Si          0.70086      0.38599      0.47647  1.0000
  Ge          0.67201      0.30657      0.13568  1.0000
  Ge          0.54575      0.42878      0.96207  1.0000
  Ge          0.57545      0.11265      0.30733  1.0000
  Si          0.91049      0.47802      0.63313  1.0000
  Si          0.50079      0.58890      0.48489  1.0000
  Si          0.44023      0.92588      0.80922  1.0000
  Ge          0.11609      0.54810      0.15623  1.0000
  Si          0.43599      0.52897      0.38506  1.0000
  Ge          0.13282      0.60626      0.05037  1.0000
  Si          0.48072      0.90355      0.70733  1.0000
  Ge          0.57987      0.46935      0.85701  1.0000
  Si          0.91968      0.42187      0.53358  1.0000
  Ge          0.51314      0.08820      0.20243  1.0000
  Ge          0.30152      0.42770      0.84998  1.0000
  Ge          0.59961      0.87496      0.19044  1.0000
  Si          0.12540      0.70127      0.52523  1.0000
  Si          0.70877      0.60467      0.36754  1.0000
  Si          0.41732      0.11918      0.69194  1.0000
  Ge          0.91785      0.31181      0.02449  1.0000
  Si          0.43192      0.31101      0.49466  1.0000
  Ge          0.88086      0.58638      0.15330  1.0000
  Ge          0.73185      0.13122      0.81948  1.0000
  Ge          0.61848      0.72158      0.98550  1.0000
  Si          0.10805      0.40550      0.65225  1.0000
  Ge          0.28924      0.87882      0.32058  1.0000
  Ge          0.26753      0.36699      0.95064  1.0000
  Ge          0.66113      0.90301      0.29636  1.0000
  Si          0.10678      0.75636      0.62380  1.0000
  Si          0.77286      0.66641      0.46668  1.0000
  Si          0.36989      0.13428      0.79323  1.0000
  Ge          0.90325      0.25559      0.12781  1.0000
  Si          0.36130      0.25092      0.39616  1.0000
  Ge          0.91494      0.66843      0.05655  1.0000
  Si          0.76358      0.10131      0.71571  1.0000
  Ge          0.65880      0.75932      0.88223  1.0000
  Si          0.11520      0.34708      0.55298  1.0000
  Ge          0.22797      0.86864      0.21649  1.0000
  Ge          0.99283      0.13282      0.97059  1.0000
  Ge          0.89056      0.85443      0.31797  1.0000
  Si          0.16795      0.03809      0.63910  1.0000
  Si          0.05495      0.87849      0.47917  1.0000
  Ge          0.13109      0.16777      0.79875  1.0000
  Ge          0.85896      0.97187      0.14617  1.0000
  Si          0.13499      0.97049      0.38044  1.0000
  Ge          0.87195      0.89690      0.04103  1.0000
  Si          0.03184      0.15381      0.69810  1.0000
  Ge          0.89473      0.03286      0.86707  1.0000
  Si          0.18520      0.13382      0.54081  1.0000
  Ge          0.95600      0.83392      0.21193  1.0000
  O1          0.95809      0.03318      0.01360  1.0000
  O3          0.01271      0.94865      0.35516  1.0000
  O2          0.07813      0.07716      0.66541  1.0000
  O2          0.10430      0.00569      0.51055  1.0000
  O1          0.01806      0.06823      0.83339  1.0000
  O1          0.92731      0.94566      0.19033  1.0000
  O2          0.35885      0.57780      0.35631  1.0000
  O2          0.42146      0.77161      0.67735  1.0000
  O1          0.25963      0.68877      0.01674  1.0000
  O1          0.68188      0.45610      0.82262  1.0000
  O1          0.54329      0.20600      0.16615  1.0000
  O2          0.79357      0.34902      0.50243  1.0000
  O1          0.58978      0.34007      0.99260  1.0000
  O2          0.77833      0.42077      0.65862  1.0000
  O3          0.66306      0.24622      0.34273  1.0000
  O2          0.44900      0.66358      0.51691  1.0000
  O1          0.22535      0.54771      0.19065  1.0000
  O3          0.35425      0.81177      0.84030  1.0000
  O1          0.14954      0.22632      0.97240  1.0000
  O1          0.79620      0.91908      0.31959  1.0000
  O2          0.10630      0.88451      0.64197  1.0000
  O2          0.90386      0.79014      0.48549  1.0000
  O3          0.24243      0.12348      0.80866  1.0000
  O1          0.90327      0.12932      0.15188  1.0000
  O2          0.23737      0.12230      0.37766  1.0000
  O1          0.92019      0.79143      0.02741  1.0000
  O2          0.88047      0.09465      0.69247  1.0000
  O1          0.78178      0.87968      0.85427  1.0000
  O2          0.12346      0.22340      0.53468  1.0000
  O1          0.10890      0.88412      0.19648  1.0000
  O1          0.95839      0.85840      0.26922  1.0000
  O2          0.17445      0.08565      0.59010  1.0000
  O1          0.93826      0.04424      0.92156  1.0000
  O3          0.06514      0.12884      0.74579  1.0000
  O1          0.90423      0.93879      0.09649  1.0000
  O2          0.09243      0.92743      0.43034  1.0000
  O1          0.92280      0.22342      0.97938  1.0000
  O3          0.79765      0.69379      0.33017  1.0000
  O2          0.31173      0.10658      0.65704  1.0000
  O2          0.12316      0.79705      0.48925  1.0000
  O1          0.19498      0.32623      0.80807  1.0000
  O1          0.69773      0.87969      0.14954  1.0000
  O3          0.19044      0.88610      0.36099  1.0000
  O1          0.71511      0.82454      0.02790  1.0000
  O2          0.10103      0.30573      0.68869  1.0000
  O1          0.83433      0.13087      0.85753  1.0000
  O2          0.33378      0.21432      0.53067  1.0000
  O1          0.85928      0.68278      0.19568  1.0000
  O3          0.31652      0.61239      0.27256  1.0000
  O2          0.36840      0.68439      0.59495  1.0000
  O1          0.34312      0.72661      0.92746  1.0000
  O3          0.71790      0.39124      0.74164  1.0000
  O1          0.62654      0.33389      0.08454  1.0000
  O2          0.69318      0.32662      0.42638  1.0000
  O1          0.39148      0.36800      0.97584  1.0000
  O1          0.64743      0.02684      0.31829  1.0000
  O2          0.97632      0.63358      0.63938  1.0000
  O2          0.65459      0.67600      0.48713  1.0000
  O2          0.36731      0.00547      0.80800  1.0000
  O1          0.00495      0.38449      0.15867  1.0000
  O2          0.35212      0.37300      0.38021  1.0000
  O1          0.06764      0.70182      0.05492  1.0000
  O2          0.63198      0.97083      0.70239  1.0000
  O1          0.67407      0.63014      0.87513  1.0000
  O2          0.98787      0.33562      0.53173  1.0000
  O1          0.35666      0.02050      0.21154  1.0000
  O1          0.76694      0.28390      0.02311  1.0000
  O2          0.70399      0.46978      0.35830  1.0000
  O2          0.55223      0.24031      0.67969  1.0000
  O2          0.25776      0.70236      0.52088  1.0000
  O1          0.27905      0.55673      0.85170  1.0000
  O1          0.47422      0.72254      0.19093  1.0000
  O3          0.33020      0.76996      0.33868  1.0000
  O1          0.47456      0.69582      0.00065  1.0000
  O2          0.23674      0.54135      0.66342  1.0000
  O1          0.74642      0.27765      0.82613  1.0000
  O2          0.56419      0.31244      0.50057  1.0000
  O1          0.74604      0.44683      0.16705  1.0000
  O1          0.80418      0.53455      0.02674  1.0000
  O2          0.48002      0.24814      0.37463  1.0000
  O2          0.75743      0.22024      0.69637  1.0000
  O2          0.23964      0.47317      0.53697  1.0000
  O1          0.52972      0.75555      0.85940  1.0000
  O1          0.25255      0.75463      0.19260  1.0000
  O3          0.53533      0.76094      0.31262  1.0000
  O1          0.23473      0.48185      0.97136  1.0000
  O2          0.22753      0.75942      0.64609  1.0000
  O3          0.48908      0.25978      0.81322  1.0000
  O2          0.77384      0.54131      0.48325  1.0000
  O1          0.75048      0.22333      0.13050  1.0000
  O1          0.23740      0.32939      0.89423  1.0000
  O1          0.68500      0.91141      0.24027  1.0000
  O2          0.11440      0.77026      0.57071  1.0000
  O2          0.78195      0.68188      0.41354  1.0000
  O2          0.36822      0.14202      0.73884  1.0000
  O1          0.94418      0.25601      0.07263  1.0000
  O2          0.35384      0.23862      0.44945  1.0000
  O1          0.87409      0.67860      0.11032  1.0000
  O3          0.78996      0.11169      0.76793  1.0000
  O1          0.67009      0.80645      0.93786  1.0000
  O2          0.10884      0.33270      0.60621  1.0000
  O1          0.20115      0.83043      0.27306  1.0000
  O1          0.63078      0.58660      0.98144  1.0000
  O1          0.41871      0.02868      0.31877  1.0000
  O2          0.98594      0.42037      0.65879  1.0000
  O2          0.44943      0.45056      0.50640  1.0000
  O3          0.58019      0.00719      0.83023  1.0000
  O1          0.02823      0.61879      0.17110  1.0000
  O2          0.57156      0.58933      0.36178  1.0000
  O1          0.02662      0.46940      0.01988  1.0000
  O2          0.42839      0.99195      0.68901  1.0000
  O1          0.44639      0.45871      0.83357  1.0000
  O2          0.00773      0.56065      0.51280  1.0000
  O1          0.55718      0.98631      0.17848  1.0000
  O1          0.59501      0.15291      0.25272  1.0000
  O2          0.86701      0.42554      0.58250  1.0000
  O1          0.55291      0.39246      0.90680  1.0000
  O2          0.44537      0.87240      0.75880  1.0000
  O1          0.17261      0.58006      0.10161  1.0000
  O2          0.44317      0.58336      0.43587  1.0000
  F           0.42696      0.84762      0.25175  1.0000
  F           0.11885      0.55660      0.59032  1.0000
  F           0.43032      0.55614      0.91932  1.0000
  F           0.58756      0.15954      0.76378  1.0000
  F           0.89296      0.47800      0.10136  1.0000
  F           0.56989      0.45336      0.43154  1.0000
