data_cif

_audit_creation_method             'generated by GULP'

_symmetry_space_group_name_H-M     'P 1'
_symmetry_Int_Tables_number        1
_symmetry_cell_setting             triclinic

_cell_length_a                       12.2369
_cell_length_b                       12.2243
_cell_length_c                       30.2091
_cell_angle_alpha                   92.3037
_cell_angle_beta                    89.9229
_cell_angle_gamma                  119.9115

loop_
_atom_site_label
_atom_site_fract_x
_atom_site_fract_y
_atom_site_fract_z
_atom_site_occupancy
  Ge          0.69960      0.37570      0.03389  1.0000
  Ge          0.64489      0.34803      0.37628  1.0000
  Si          0.71187      0.31993      0.69849  1.0000
  Si          0.32225      0.62363      0.53343  1.0000
  Ge          0.40126      0.69449      0.86482  1.0000
  Ge          0.33770      0.70016      0.20563  1.0000
  Ge          0.38765      0.68723      0.30494  1.0000
  Ge          0.33702      0.66047      0.96404  1.0000
  Si          0.32004      0.68779      0.63382  1.0000
  Ge          0.64769      0.29245      0.79480  1.0000
  Si          0.72093      0.38826      0.47355  1.0000
  Ge          0.68245      0.32001      0.13306  1.0000
  Ge          0.55231      0.43959      0.96543  1.0000
  Ge          0.58731      0.12266      0.30894  1.0000
  Si          0.91214      0.48324      0.63383  1.0000
  Si          0.50281      0.58474      0.47413  1.0000
  Ge          0.44921      0.91075      0.80035  1.0000
  Ge          0.11869      0.54904      0.13691  1.0000
  Ge          0.44211      0.52302      0.37108  1.0000
  Ge          0.11736      0.59058      0.03201  1.0000
  Si          0.49985      0.90686      0.69717  1.0000
  Ge          0.60218      0.47408      0.86020  1.0000
  Ge          0.94349      0.44099      0.53744  1.0000
  Ge          0.53079      0.11135      0.20295  1.0000
  Ge          0.31142      0.41398      0.84556  1.0000
  Ge          0.61169      0.89638      0.18452  1.0000
  Si          0.12625      0.70607      0.51515  1.0000
  Si          0.72969      0.61407      0.35505  1.0000
  Si          0.43122      0.11896      0.68621  1.0000
  Ge          0.89829      0.29701      0.01226  1.0000
  Si          0.43746      0.30466      0.48349  1.0000
  Ge          0.88783      0.60812      0.14764  1.0000
  Si          0.74105      0.11701      0.81394  1.0000
  Ge          0.61945      0.73313      0.97826  1.0000
  Si          0.12181      0.41070      0.64703  1.0000
  Ge          0.30249      0.89177      0.31868  1.0000
  Ge          0.26720      0.37132      0.94746  1.0000
  Ge          0.67106      0.91328      0.28832  1.0000
  Si          0.11235      0.75912      0.61654  1.0000
  Si          0.78029      0.66615      0.45787  1.0000
  Si          0.36722      0.11394      0.78610  1.0000
  Ge          0.90690      0.25992      0.11488  1.0000
  Si          0.36310      0.23984      0.38286  1.0000
  Ge          0.90022      0.66127      0.04395  1.0000
  Si          0.77900      0.10659      0.71158  1.0000
  Ge          0.68307      0.76729      0.87461  1.0000
  Si          0.11985      0.34222      0.54648  1.0000
  Ge          0.24541      0.89620      0.21483  1.0000
  Ge          0.99313      0.13441      0.95971  1.0000
  Si          0.89647      0.86566      0.30930  1.0000
  Si          0.18393      0.04287      0.63269  1.0000
  Si          0.05857      0.88478      0.47173  1.0000
  Si          0.14096      0.16186      0.79182  1.0000
  Ge          0.86764      0.98772      0.13534  1.0000
  Si          0.13225      0.96670      0.37303  1.0000
  Ge          0.87377      0.90432      0.03051  1.0000
  Si          0.05268      0.16336      0.69307  1.0000
  Si          0.91360      0.03416      0.85739  1.0000
  Si          0.19539      0.13281      0.53418  1.0000
  Ge          0.96709      0.85846      0.20567  1.0000
  O1          0.96657      0.02493      0.99803  1.0000
  O2          0.01082      0.94140      0.34481  1.0000
  O2          0.09561      0.08630      0.65897  1.0000
  O2          0.10527      0.00721      0.50459  1.0000
  O2          0.02360      0.07526      0.82181  1.0000
  O1          0.93572      0.96100      0.18037  1.0000
  O1          0.35549      0.56827      0.34083  1.0000
  O2          0.44381      0.78113      0.66352  1.0000
  O1          0.24576      0.68691      0.00135  1.0000
  O1          0.68629      0.42443      0.82956  1.0000
  O1          0.56859      0.23791      0.17102  1.0000
  O3          0.80144      0.35768      0.50551  1.0000
  O1          0.57178      0.34251      0.99828  1.0000
  O2          0.79571      0.43710      0.66722  1.0000
  O1          0.67970      0.25206      0.34106  1.0000
  O2          0.44964      0.65668      0.50672  1.0000
  O1          0.23865      0.56968      0.16969  1.0000
  O1          0.36343      0.78647      0.83022  1.0000
  O1          0.14579      0.24364      0.97158  1.0000
  O3          0.80819      0.92585      0.31216  1.0000
  O2          0.12015      0.89017      0.63493  1.0000
  O2          0.90795      0.79018      0.47787  1.0000
  O2          0.23526      0.10709      0.79867  1.0000
  O1          0.92157      0.14501      0.14091  1.0000
  O2          0.23269      0.11456      0.36771  1.0000
  O1          0.91206      0.79014      0.01910  1.0000
  O2          0.90085      0.10582      0.68942  1.0000
  O3          0.82315      0.88666      0.85230  1.0000
  O2          0.13693      0.22425      0.53028  1.0000
  O1          0.11883      0.90071      0.19285  1.0000
  O3          0.95786      0.87550      0.26239  1.0000
  O2          0.19173      0.08709      0.58318  1.0000
  O3          0.97490      0.07219      0.90624  1.0000
  O2          0.09215      0.14422      0.74085  1.0000
  O1          0.90930      0.94912      0.08600  1.0000
  O2          0.08705      0.93567      0.42322  1.0000
  O1          0.90040      0.19994      0.96922  1.0000
  O2          0.81774      0.71741      0.32044  1.0000
  O2          0.32833      0.10961      0.64995  1.0000
  O2          0.13612      0.81217      0.48166  1.0000
  O3          0.20761      0.30732      0.80399  1.0000
  O1          0.70726      0.90293      0.14155  1.0000
  O3          0.19517      0.88540      0.35876  1.0000
  O1          0.71643      0.84031      0.01992  1.0000
  O2          0.11937      0.31306      0.68267  1.0000
  O2          0.83528      0.10659      0.84879  1.0000
  O2          0.34120      0.20980      0.51969  1.0000
  O1          0.87432      0.70463      0.18858  1.0000
  O1          0.34438      0.62196      0.25196  1.0000
  O2          0.36493      0.67641      0.58424  1.0000
  O1          0.31814      0.69872      0.91159  1.0000
  O3          0.71543      0.38067      0.74562  1.0000
  O1          0.61926      0.29293      0.08020  1.0000
  O3          0.72131      0.33624      0.42423  1.0000
  O1          0.39315      0.35055      0.95147  1.0000
  O1          0.68282      0.05596      0.29715  1.0000
  O2          0.98559      0.63983      0.63457  1.0000
  O2          0.65644      0.66991      0.47641  1.0000
  O3          0.35715      0.98351      0.79859  1.0000
  O1          0.05019      0.39058      0.12035  1.0000
  O3          0.35239      0.35930      0.36764  1.0000
  O1          0.01749      0.64603      0.01959  1.0000
  O2          0.65292      0.98018      0.69244  1.0000
  O1          0.67038      0.63428      0.85022  1.0000
  O3          0.99189      0.32441      0.52701  1.0000
  O1          0.37305      0.01559      0.19055  1.0000
  O1          0.76977      0.31006      0.00010  1.0000
  O3          0.73592      0.48907      0.34565  1.0000
  O2          0.56665      0.24251      0.67738  1.0000
  O2          0.25663      0.69761      0.51193  1.0000
  O1          0.33007      0.55584      0.83152  1.0000
  O1          0.47005      0.76506      0.17225  1.0000
  O1          0.28945      0.74577      0.32028  1.0000
  O1          0.49273      0.75701      0.97999  1.0000
  O2          0.25049      0.54778      0.65405  1.0000
  O3          0.75042      0.25002      0.82267  1.0000
  O2          0.57226      0.31406      0.48989  1.0000
  O1          0.74058      0.47724      0.14805  1.0000
  O1          0.75415      0.53823      0.02946  1.0000
  O3          0.47779      0.23424      0.36074  1.0000
  O2          0.77609      0.22968      0.69595  1.0000
  O2          0.23833      0.47148      0.52841  1.0000
  O1          0.56376      0.79309      0.85904  1.0000
  O1          0.22722      0.75245      0.19901  1.0000
  O1          0.54570      0.79351      0.31410  1.0000
  O1          0.28233      0.50362      0.97461  1.0000
  O2          0.23209      0.75164      0.63510  1.0000
  O3          0.48362      0.23193      0.81000  1.0000
  O2          0.77535      0.54172      0.47501  1.0000
  O1          0.78715      0.26731      0.14179  1.0000
  O1          0.22351      0.36286      0.89259  1.0000
  O1          0.67641      0.87797      0.23297  1.0000
  O2          0.11433      0.76477      0.56344  1.0000
  O2          0.78481      0.67648      0.40489  1.0000
  O2          0.37240      0.12998      0.73220  1.0000
  O1          0.87271      0.21165      0.05966  1.0000
  O2          0.36844      0.23765      0.43696  1.0000
  O1          0.91931      0.69350      0.10082  1.0000
  O2          0.79163      0.10317      0.76437  1.0000
  O1          0.70919      0.78619      0.93147  1.0000
  O2          0.12200      0.34269      0.60031  1.0000
  O1          0.24462      0.91976      0.27169  1.0000
  O1          0.57631      0.58194      0.98983  1.0000
  O1          0.45402      0.00270      0.33242  1.0000
  O2          0.00403      0.43321      0.65339  1.0000
  O2          0.45402      0.44417      0.49119  1.0000
  O3          0.60002      0.00560      0.82254  1.0000
  O1          0.00080      0.57098      0.16065  1.0000
  O3          0.58812      0.58936      0.34668  1.0000
  O1          0.04378      0.43315      0.01452  1.0000
  O2          0.44374      0.99367      0.68033  1.0000
  O1          0.44412      0.40245      0.84522  1.0000
  O3          0.00707      0.57518      0.50204  1.0000
  O1          0.61439      0.03877      0.18633  1.0000
  O1          0.55082      0.15848      0.25809  1.0000
  O3          0.85390      0.42552      0.58642  1.0000
  O1          0.62980      0.46690      0.91589  1.0000
  O3          0.46001      0.86113      0.74542  1.0000
  O1          0.16238      0.62448      0.08712  1.0000
  O3          0.45153      0.58106      0.42549  1.0000
  F           0.43408      0.86099      0.24515  1.0000
  F           0.08693      0.53436      0.57278  1.0000
  F           0.45710      0.59587      0.90560  1.0000
  F           0.58962      0.14623      0.75867  1.0000
  F           0.86032      0.43982      0.07425  1.0000
  F           0.58178      0.43458      0.40903  1.0000
