data_cif

_audit_creation_method             'generated by GULP'

_symmetry_space_group_name_H-M     'P 1'
_symmetry_Int_Tables_number        1
_symmetry_cell_setting             triclinic

_cell_length_a                       12.1767
_cell_length_b                       12.2399
_cell_length_c                       30.2044
_cell_angle_alpha                   89.4940
_cell_angle_beta                    91.6201
_cell_angle_gamma                  119.7934

loop_
_atom_site_label
_atom_site_fract_x
_atom_site_fract_y
_atom_site_fract_z
_atom_site_occupancy
  Ge          0.69960      0.37570      0.03389  1.0000
  Si          0.64944      0.32997      0.35569  1.0000
  Ge          0.70113      0.34147      0.69673  1.0000
  Ge          0.34199      0.64787      0.52576  1.0000
  Ge          0.36958      0.68540      0.86971  1.0000
  Si          0.34307      0.71212      0.19724  1.0000
  Si          0.40916      0.71918      0.29534  1.0000
  Ge          0.30850      0.63726      0.97036  1.0000
  Ge          0.32621      0.69551      0.62495  1.0000
  Ge          0.64368      0.31957      0.79587  1.0000
  Ge          0.68918      0.39738      0.45270  1.0000
  Si          0.71749      0.32459      0.13555  1.0000
  Ge          0.53153      0.43122      0.96769  1.0000
  Si          0.60506      0.11516      0.29453  1.0000
  Ge          0.90946      0.49603      0.62554  1.0000
  Ge          0.51056      0.59826      0.45957  1.0000
  Ge          0.42879      0.90208      0.80024  1.0000
  Si          0.12957      0.53392      0.13474  1.0000
  Si          0.44956      0.54303      0.35672  1.0000
  Ge          0.08938      0.57017      0.03639  1.0000
  Ge          0.47523      0.90802      0.69528  1.0000
  Ge          0.58200      0.47675      0.86301  1.0000
  Ge          0.90993      0.44740      0.51983  1.0000
  Si          0.54432      0.10962      0.19561  1.0000
  Ge          0.28796      0.40597      0.85103  1.0000
  Si          0.61749      0.90730      0.18254  1.0000
  Ge          0.13832      0.73256      0.50979  1.0000
  Si          0.73169      0.61106      0.34537  1.0000
  Ge          0.41426      0.13549      0.68260  1.0000
  Ge          0.90395      0.29364      0.01578  1.0000
  Si          0.42117      0.30952      0.47436  1.0000
  Si          0.91595      0.60172      0.14830  1.0000
  Ge          0.72285      0.11981      0.81558  1.0000
  Ge          0.59575      0.71485      0.98386  1.0000
  Ge          0.12680      0.41855      0.64375  1.0000
  Si          0.33079      0.91481      0.30916  1.0000
  Ge          0.24447      0.35279      0.95331  1.0000
  Si          0.68490      0.91964      0.28133  1.0000
  Ge          0.12484      0.78194      0.61314  1.0000
  Si          0.79534      0.67860      0.44595  1.0000
  Ge          0.35794      0.11974      0.78602  1.0000
  Si          0.93044      0.25509      0.11837  1.0000
  Si          0.36953      0.26518      0.37179  1.0000
  Si          0.90318      0.66092      0.04786  1.0000
  Ge          0.76350      0.11957      0.71378  1.0000
  Ge          0.65342      0.76180      0.88142  1.0000
  Ge          0.11866      0.36312      0.54055  1.0000
  Si          0.26961      0.91583      0.21034  1.0000
  Ge          0.97202      0.11165      0.96727  1.0000
  Si          0.90318      0.85773      0.29476  1.0000
  Ge          0.16751      0.06097      0.62297  1.0000
  Si          0.06950      0.90706      0.45481  1.0000
  Ge          0.11802      0.15258      0.79724  1.0000
  Si          0.86413      0.97930      0.13481  1.0000
  Si          0.15469      0.98824      0.35574  1.0000
  Si          0.84542      0.88385      0.03605  1.0000
  Ge          0.03746      0.16182      0.69274  1.0000
  Si          0.88793      0.03053      0.86540  1.0000
  Si          0.16758      0.13831      0.51960  1.0000
  Si          0.98871      0.85243      0.19610  1.0000
  O3          0.93588      0.98643      0.00202  1.0000
  O2          0.03164      0.94298      0.32330  1.0000
  O1          0.06616      0.09709      0.64714  1.0000
  O2          0.09645      0.02869      0.48271  1.0000
  O3          0.98609      0.05922      0.82698  1.0000
  O2          0.94439      0.93134      0.16481  1.0000
  O2          0.37659      0.59541      0.32494  1.0000
  O1          0.45183      0.78809      0.66192  1.0000
  O1          0.21975      0.66766      0.00478  1.0000
  O1          0.67615      0.44296      0.83351  1.0000
  O2          0.59909      0.23677      0.16642  1.0000
  O1          0.78323      0.35852      0.48628  1.0000
  O1          0.56783      0.34006      0.00299  1.0000
  O1          0.78242      0.45694      0.65801  1.0000
  O2          0.67954      0.24576      0.32229  1.0000
  O1          0.46613      0.68313      0.49066  1.0000
  O2          0.25233      0.58585      0.16869  1.0000
  O1          0.33697      0.77578      0.83136  1.0000
  O1          0.12400      0.22334      0.97917  1.0000
  O2          0.81185      0.91841      0.29955  1.0000
  O1          0.11807      0.90712      0.63509  1.0000
  O2          0.92037      0.80854      0.46041  1.0000
  O1          0.22427      0.10422      0.80987  1.0000
  O2          0.92415      0.13025      0.14173  1.0000
  O2          0.24623      0.14001      0.35127  1.0000
  O2          0.88683      0.77817      0.03392  1.0000
  O1          0.87960      0.10437      0.68782  1.0000
  O3          0.79151      0.88405      0.86028  1.0000
  O3          0.10676      0.22642      0.51703  1.0000
  O2          0.14112      0.91399      0.19225  1.0000
  O2          0.94639      0.86105      0.24503  1.0000
  O3          0.15591      0.07281      0.56589  1.0000
  O3          0.95818      0.06221      0.91339  1.0000
  O1          0.08140      0.12234      0.74150  1.0000
  O2          0.87509      0.94785      0.08480  1.0000
  O2          0.10176      0.95142      0.40419  1.0000
  O1          0.87987      0.17677      0.97878  1.0000
  O2          0.82513      0.71132      0.30921  1.0000
  O1          0.32013      0.14978      0.64101  1.0000
  O3          0.14821      0.84141      0.46925  1.0000
  O1          0.18406      0.30814      0.80929  1.0000
  O2          0.71516      0.90837      0.14678  1.0000
  O2          0.23609      0.91984      0.34514  1.0000
  O3          0.69902      0.82201      0.02492  1.0000
  O1          0.11940      0.32227      0.68681  1.0000
  O3          0.81757      0.11093      0.85878  1.0000
  O2          0.31736      0.21993      0.50919  1.0000
  O2          0.92341      0.70415      0.18404  1.0000
  O2          0.34880      0.66124      0.24674  1.0000
  O1          0.40556      0.68957      0.57851  1.0000
  O1          0.28620      0.67458      0.91647  1.0000
  O1          0.72894      0.40325      0.74963  1.0000
  O3          0.65914      0.33225      0.08884  1.0000
  O3          0.70501      0.32595      0.40303  1.0000
  O1          0.37280      0.33141      0.95858  1.0000
  O2          0.69340      0.04920      0.29909  1.0000
  O1          0.00500      0.65343      0.63755  1.0000
  O3          0.67486      0.68871      0.46085  1.0000
  O1          0.38010      0.00886      0.81252  1.0000
  O2          0.05647      0.37933      0.13780  1.0000
  O2          0.36698      0.38951      0.35367  1.0000
  O3          0.03284      0.67994      0.03098  1.0000
  O1          0.63475      0.97484      0.70881  1.0000
  O1          0.63630      0.63482      0.85291  1.0000
  O1          0.97538      0.35081      0.53087  1.0000
  O2          0.39010      0.04360      0.19174  1.0000
  O1          0.76015      0.28882      0.01267  1.0000
  O2          0.72152      0.47558      0.33681  1.0000
  O1          0.54395      0.28385      0.68220  1.0000
  O1          0.28545      0.74664      0.50889  1.0000
  O1          0.30778      0.54981      0.83746  1.0000
  O2          0.48297      0.77752      0.17530  1.0000
  O2          0.33543      0.78525      0.31779  1.0000
  O1          0.46773      0.73538      0.98535  1.0000
  O1          0.25501      0.56015      0.65695  1.0000
  O1          0.70561      0.24503      0.82957  1.0000
  O3          0.54612      0.30175      0.48250  1.0000
  O2          0.79344      0.46512      0.15787  1.0000
  O3          0.78455      0.53776      0.02596  1.0000
  O2          0.49566      0.26985      0.35457  1.0000
  O1          0.75683      0.23961      0.68641  1.0000
  O1          0.24031      0.49009      0.51507  1.0000
  O1          0.53174      0.79027      0.87025  1.0000
  O2          0.26977      0.79268      0.19171  1.0000
  O2          0.56305      0.79791      0.30109  1.0000
  O1          0.26617      0.48222      0.98127  1.0000
  O1          0.26959      0.80218      0.62870  1.0000
  O1          0.48155      0.26751      0.79663  1.0000
  O3          0.79992      0.56316      0.46833  1.0000
  O2          0.80714      0.26260      0.13274  1.0000
  O1          0.20018      0.34594      0.89847  1.0000
  O2          0.69333      0.91456      0.22833  1.0000
  O1          0.10394      0.78640      0.55631  1.0000
  O2          0.80029      0.67340      0.39183  1.0000
  O1          0.32579      0.09795      0.72931  1.0000
  O3          0.93107      0.23578      0.06672  1.0000
  O2          0.35826      0.25737      0.42473  1.0000
  O2          0.89813      0.65510      0.10187  1.0000
  O1          0.81320      0.15524      0.76851  1.0000
  O1          0.68615      0.76892      0.93771  1.0000
  O1          0.15095      0.35624      0.59579  1.0000
  O2          0.25916      0.91688      0.26346  1.0000
  O1          0.56016      0.56448      0.99662  1.0000
  O2          0.46908      0.03641      0.31814  1.0000
  O1          0.98228      0.41188      0.64121  1.0000
  O3          0.44827      0.45107      0.48348  1.0000
  O1          0.59016      0.97465      0.81153  1.0000
  O2          0.04039      0.58814      0.15293  1.0000
  O2          0.59185      0.59383      0.33966  1.0000
  O1          0.02955      0.43393      0.00143  1.0000
  O1          0.45416      0.02467      0.66962  1.0000
  O1          0.42060      0.39141      0.85125  1.0000
  O1          0.02925      0.58157      0.49579  1.0000
  O2          0.59982      0.02794      0.17294  1.0000
  O2          0.59961      0.16215      0.24482  1.0000
  O1          0.86631      0.47866      0.57008  1.0000
  O1          0.61025      0.46140      0.91943  1.0000
  O1          0.39557      0.86285      0.74429  1.0000
  O3          0.17770      0.58095      0.08675  1.0000
  O3          0.45071      0.58906      0.40574  1.0000
  F           0.47393      0.91069      0.24673  1.0000
  F           0.16351      0.59554      0.58229  1.0000
  F           0.43580      0.57544      0.91258  1.0000
  F           0.58622      0.16208      0.75398  1.0000
  F           0.93828      0.46446      0.06978  1.0000
  F           0.60259      0.45928      0.41942  1.0000
