data_cif

_audit_creation_method             'generated by GULP'

_symmetry_space_group_name_H-M     'P 1'
_symmetry_Int_Tables_number        1
_symmetry_cell_setting             triclinic

_cell_length_a                       12.1443
_cell_length_b                       12.2077
_cell_length_c                       30.1587
_cell_angle_alpha                   89.1346
_cell_angle_beta                    91.6586
_cell_angle_gamma                  119.6475

loop_
_atom_site_label
_atom_site_fract_x
_atom_site_fract_y
_atom_site_fract_z
_atom_site_occupancy
  Ge          0.69960      0.37570      0.03389  1.0000
  Si          0.63582      0.32520      0.35659  1.0000
  Ge          0.69802      0.32591      0.69402  1.0000
  Ge          0.32936      0.63313      0.53511  1.0000
  Ge          0.35402      0.68121      0.87529  1.0000
  Si          0.32604      0.69940      0.20492  1.0000
  Si          0.39710      0.71557      0.30313  1.0000
  Ge          0.30425      0.63346      0.97623  1.0000
  Ge          0.33016      0.69419      0.63409  1.0000
  Ge          0.65606      0.33848      0.79426  1.0000
  Ge          0.68344      0.38316      0.45387  1.0000
  Si          0.69914      0.31399      0.13574  1.0000
  Ge          0.53897      0.43531      0.96331  1.0000
  Si          0.59012      0.11279      0.29469  1.0000
  Ge          0.90332      0.48202      0.62140  1.0000
  Ge          0.50227      0.58658      0.47030  1.0000
  Ge          0.43970      0.90859      0.81407  1.0000
  Si          0.11296      0.52074      0.14334  1.0000
  Si          0.43864      0.54128      0.36665  1.0000
  Ge          0.08809      0.56681      0.04451  1.0000
  Ge          0.47749      0.90138      0.70903  1.0000
  Ge          0.58052      0.48820      0.85774  1.0000
  Ge          0.91135      0.43583      0.51627  1.0000
  Si          0.52422      0.09739      0.19577  1.0000
  Ge          0.27843      0.41090      0.84850  1.0000
  Si          0.59742      0.89394      0.18642  1.0000
  Ge          0.13762      0.71862      0.50779  1.0000
  Si          0.71911      0.60762      0.35119  1.0000
  Ge          0.40443      0.11740      0.68814  1.0000
  Ge          0.90633      0.29290      0.01981  1.0000
  Si          0.41842      0.29490      0.47908  1.0000
  Si          0.89784      0.58973      0.15298  1.0000
  Ge          0.72972      0.14000      0.82087  1.0000
  Ge          0.59893      0.72191      0.98101  1.0000
  Ge          0.11787      0.40500      0.64280  1.0000
  Si          0.31688      0.91279      0.31311  1.0000
  Ge          0.24735      0.35127      0.95248  1.0000
  Si          0.67128      0.91648      0.28483  1.0000
  Ge          0.11935      0.76943      0.61012  1.0000
  Si          0.78727      0.66524      0.45180  1.0000
  Ge          0.37311      0.12764      0.79090  1.0000
  Si          0.91504      0.24409      0.12271  1.0000
  Si          0.35829      0.26120      0.37671  1.0000
  Si          0.90167      0.65897      0.05235  1.0000
  Ge          0.76864      0.11548      0.71788  1.0000
  Ge          0.64454      0.77393      0.87636  1.0000
  Ge          0.11929      0.35158      0.54081  1.0000
  Si          0.25156      0.90375      0.21406  1.0000
  Ge          0.97728      0.11012      0.97178  1.0000
  Si          0.88992      0.85488      0.29942  1.0000
  Si          0.16087      0.04087      0.62661  1.0000
  Si          0.06202      0.89429      0.45895  1.0000
  Ge          0.12936      0.15446      0.79809  1.0000
  Si          0.84395      0.96539      0.13919  1.0000
  Si          0.14119      0.98693      0.36040  1.0000
  Si          0.84441      0.88263      0.03957  1.0000
  Ge          0.04065      0.14914      0.69415  1.0000
  Ge          0.89468      0.04366      0.86678  1.0000
  Si          0.16714      0.12405      0.52525  1.0000
  Si          0.96985      0.83928      0.20065  1.0000
  O3          0.94721      0.99464      0.01097  1.0000
  O2          0.01861      0.94156      0.32755  1.0000
  O3          0.06571      0.07382      0.65063  1.0000
  O2          0.09189      0.00759      0.49180  1.0000
  O1          0.00645      0.05929      0.83092  1.0000
  O2          0.92504      0.91827      0.16923  1.0000
  O2          0.36611      0.59700      0.33549  1.0000
  O1          0.43683      0.77137      0.67691  1.0000
  O1          0.22487      0.66276      0.01486  1.0000
  O1          0.68086      0.46985      0.82505  1.0000
  O2          0.57657      0.22197      0.16446  1.0000
  O1          0.78385      0.34357      0.48361  1.0000
  O1          0.57550      0.34445      0.99878  1.0000
  O1          0.77218      0.43672      0.65256  1.0000
  O2          0.66452      0.24590      0.32040  1.0000
  O1          0.46565      0.67052      0.50370  1.0000
  O2          0.23216      0.56926      0.17864  1.0000
  O1          0.32777      0.79040      0.84414  1.0000
  O1          0.13246      0.22096      0.97956  1.0000
  O2          0.80024      0.91832      0.30274  1.0000
  O3          0.10830      0.89312      0.63307  1.0000
  O2          0.91419      0.79409      0.46608  1.0000
  O1          0.24531      0.12410      0.81563  1.0000
  O2          0.90311      0.11644      0.14594  1.0000
  O2          0.23218      0.13886      0.35602  1.0000
  O2          0.88621      0.77685      0.03759  1.0000
  O1          0.88107      0.08869      0.69440  1.0000
  O1          0.77128      0.89946      0.85294  1.0000
  O3          0.10590      0.21114      0.51990  1.0000
  O2          0.12161      0.89864      0.19544  1.0000
  O2          0.93229      0.85208      0.24983  1.0000
  O2          0.15998      0.06912      0.57427  1.0000
  O1          0.94980      0.04634      0.92037  1.0000
  O1          0.09121      0.11542      0.74323  1.0000
  O2          0.85503      0.93343      0.08936  1.0000
  O2          0.08735      0.94994      0.40903  1.0000
  O1          0.88899      0.18126      0.98190  1.0000
  O2          0.81051      0.70982      0.31489  1.0000
  O3          0.30183      0.11930      0.64650  1.0000
  O3          0.14472      0.82858      0.46777  1.0000
  O1          0.17697      0.30998      0.80783  1.0000
  O2          0.69446      0.89279      0.15055  1.0000
  O2          0.22395      0.91979      0.34934  1.0000
  O3          0.70307      0.82649      0.02196  1.0000
  O1          0.11367      0.30809      0.68614  1.0000
  O1          0.84028      0.14794      0.86089  1.0000
  O2          0.31611      0.19996      0.51380  1.0000
  O2          0.90149      0.69002      0.18884  1.0000
  O2          0.33545      0.65329      0.25505  1.0000
  O1          0.40175      0.67982      0.58778  1.0000
  O1          0.27421      0.67158      0.92351  1.0000
  O1          0.69433      0.40256      0.74119  1.0000
  O3          0.64815      0.32656      0.08779  1.0000
  O3          0.69423      0.31428      0.40252  1.0000
  O1          0.38021      0.33658      0.95412  1.0000
  O2          0.67954      0.04773      0.30019  1.0000
  O1          0.00566      0.63738      0.63569  1.0000
  O3          0.66805      0.67433      0.46823  1.0000
  O1          0.35270      0.98218      0.79792  1.0000
  O2          0.03881      0.36570      0.14448  1.0000
  O2          0.35551      0.38805      0.36144  1.0000
  O3          0.03386      0.67866      0.03741  1.0000
  O1          0.63048      0.00364      0.69386  1.0000
  O1          0.63656      0.64740      0.85098  1.0000
  O1          0.97643      0.33815      0.52814  1.0000
  O2          0.36959      0.03006      0.19298  1.0000
  O1          0.76339      0.29021      0.01379  1.0000
  O2          0.70692      0.47282      0.33935  1.0000
  O1          0.55104      0.22772      0.67001  1.0000
  O1          0.28613      0.73598      0.50972  1.0000
  O1          0.28147      0.55052      0.83993  1.0000
  O2          0.46371      0.76219      0.18101  1.0000
  O2          0.32379      0.78485      0.32342  1.0000
  O1          0.46666      0.73380      0.98673  1.0000
  O1          0.23259      0.55143      0.65935  1.0000
  O1          0.75547      0.29166      0.81989  1.0000
  O3          0.54296      0.28423      0.48462  1.0000
  O2          0.77170      0.45297      0.15921  1.0000
  O3          0.78591      0.53843      0.02821  1.0000
  O2          0.48180      0.26563      0.35659  1.0000
  O1          0.79676      0.26277      0.70210  1.0000
  O1          0.24872      0.47590      0.51757  1.0000
  O1          0.51710      0.79297      0.86393  1.0000
  O2          0.25048      0.77794      0.19760  1.0000
  O2          0.55116      0.79699      0.30668  1.0000
  O1          0.27210      0.47919      0.98215  1.0000
  O1          0.26695      0.79197      0.62354  1.0000
  O1          0.50206      0.25408      0.81435  1.0000
  O3          0.79369      0.54734      0.47178  1.0000
  O2          0.78989      0.25255      0.13391  1.0000
  O1          0.19969      0.34486      0.89798  1.0000
  O2          0.67689      0.90586      0.23182  1.0000
  O1          0.09417      0.76838      0.55398  1.0000
  O2          0.79222      0.66495      0.39735  1.0000
  O1          0.36268      0.16334      0.73494  1.0000
  O3          0.92537      0.23023      0.07107  1.0000
  O2          0.35102      0.24684      0.42971  1.0000
  O2          0.89002      0.64921      0.10616  1.0000
  O1          0.78526      0.10233      0.77418  1.0000
  O1          0.67881      0.78419      0.93321  1.0000
  O1          0.15090      0.34578      0.59689  1.0000
  O2          0.24332      0.91047      0.26715  1.0000
  O1          0.57096      0.57149      0.99054  1.0000
  O2          0.45543      0.03543      0.31941  1.0000
  O1          0.97098      0.39093      0.63533  1.0000
  O3          0.44751      0.43512      0.49064  1.0000
  O1          0.58120      0.02939      0.83692  1.0000
  O2          0.01988      0.57225      0.16004  1.0000
  O2          0.58016      0.59403      0.34809  1.0000
  O1          0.03525      0.43442      0.00813  1.0000
  O1          0.38560      0.96930      0.69475  1.0000
  O1          0.41983      0.41190      0.84450  1.0000
  O1          0.03022      0.56910      0.49130  1.0000
  O2          0.57937      0.01383      0.17413  1.0000
  O2          0.58225      0.15503      0.24415  1.0000
  O1          0.86636      0.47121      0.56585  1.0000
  O1          0.60987      0.46345      0.91325  1.0000
  O1          0.47287      0.86183      0.76387  1.0000
  O3          0.16815      0.57290      0.09610  1.0000
  O3          0.44026      0.58133      0.41627  1.0000
  F           0.45820      0.90350      0.24883  1.0000
  F           0.16040      0.57394      0.57247  1.0000
  F           0.42965      0.58957      0.90857  1.0000
  F           0.59151      0.16237      0.75633  1.0000
  F           0.93127      0.45910      0.07424  1.0000
  F           0.59555      0.44784      0.42299  1.0000
