data_cif

_audit_creation_method             'generated by GULP'

_symmetry_space_group_name_H-M     'P 1'
_symmetry_Int_Tables_number        1
_symmetry_cell_setting             triclinic

_cell_length_a                       12.2120
_cell_length_b                       12.2502
_cell_length_c                       30.3721
_cell_angle_alpha                   90.1347
_cell_angle_beta                    90.3243
_cell_angle_gamma                  119.7751

loop_
_atom_site_label
_atom_site_fract_x
_atom_site_fract_y
_atom_site_fract_z
_atom_site_occupancy
  Ge          0.69960      0.37570      0.03389  1.0000
  Si          0.61676      0.35252      0.35752  1.0000
  Ge          0.69940      0.32475      0.68202  1.0000
  Si          0.29001      0.64048      0.52431  1.0000
  Ge          0.37432      0.69226      0.86130  1.0000
  Si          0.33848      0.71760      0.19744  1.0000
  Ge          0.39584      0.72546      0.30004  1.0000
  Ge          0.31775      0.63209      0.96298  1.0000
  Ge          0.29337      0.69585      0.62649  1.0000
  Ge          0.63634      0.32753      0.78491  1.0000
  Si          0.67281      0.41080      0.45729  1.0000
  Ge          0.69104      0.30998      0.13652  1.0000
  Ge          0.54374      0.42668      0.96109  1.0000
  Si          0.58953      0.14048      0.29848  1.0000
  Ge          0.91125      0.50524      0.61639  1.0000
  Si          0.46594      0.61260      0.46055  1.0000
  Ge          0.42104      0.89877      0.79074  1.0000
  Ge          0.11938      0.54128      0.13559  1.0000
  Ge          0.43124      0.54413      0.36471  1.0000
  Ge          0.11744      0.59321      0.03475  1.0000
  Ge          0.48008      0.91137      0.69079  1.0000
  Ge          0.58842      0.48298      0.85849  1.0000
  Si          0.88049      0.43990      0.51971  1.0000
  Ge          0.51774      0.09522      0.20293  1.0000
  Ge          0.29996      0.40931      0.84535  1.0000
  Si          0.61769      0.92142      0.18248  1.0000
  Si          0.09158      0.72090      0.50963  1.0000
  Si          0.70011      0.63254      0.34148  1.0000
  Ge          0.40722      0.11566      0.66855  1.0000
  Ge          0.91231      0.30511      0.01823  1.0000
  Si          0.39534      0.33086      0.47163  1.0000
  Ge          0.89658      0.59789      0.15307  1.0000
  Ge          0.70756      0.11362      0.80487  1.0000
  Ge          0.60367      0.70795      0.97871  1.0000
  Si          0.08921      0.41073      0.63941  1.0000
  Si          0.30907      0.92485      0.31133  1.0000
  Ge          0.25753      0.35070      0.94667  1.0000
  Si          0.67571      0.94491      0.28386  1.0000
  Si          0.08932      0.78002      0.60978  1.0000
  Si          0.74411      0.69021      0.44261  1.0000
  Ge          0.34754      0.10922      0.77004  1.0000
  Ge          0.92333      0.25587      0.11969  1.0000
  Si          0.33322      0.27011      0.37205  1.0000
  Ge          0.90857      0.66297      0.05175  1.0000
  Ge          0.76275      0.10357      0.70243  1.0000
  Ge          0.66120      0.76411      0.87711  1.0000
  Si          0.07933      0.35960      0.53799  1.0000
  Si          0.24500      0.91309      0.21146  1.0000
  Ge          0.97901      0.12758      0.96259  1.0000
  Si          0.88742      0.87741      0.29613  1.0000
  Si          0.16590      0.06306      0.61685  1.0000
  Si          0.02571      0.90089      0.45821  1.0000
  Ge          0.12384      0.16861      0.78726  1.0000
  Si          0.86101      0.97977      0.13534  1.0000
  Si          0.12661      0.98809      0.36018  1.0000
  Ge          0.84912      0.88862      0.03350  1.0000
  Si          0.04255      0.16767      0.68470  1.0000
  Ge          0.88911      0.04717      0.85779  1.0000
  Si          0.14790      0.14847      0.51935  1.0000
  Si          0.96286      0.84650      0.19947  1.0000
  O1          0.92525      0.99294      0.99169  1.0000
  O2          0.00901      0.94981      0.32771  1.0000
  O2          0.09071      0.10687      0.64816  1.0000
  O2          0.06940      0.02824      0.48678  1.0000
  O1          0.98831      0.07336      0.81408  1.0000
  O2          0.93447      0.92152      0.16172  1.0000
  O1          0.35119      0.59965      0.33191  1.0000
  O1          0.42285      0.77457      0.65708  1.0000
  O1          0.23769      0.67613      0.99779  1.0000
  O1          0.67338      0.44898      0.82080  1.0000
  O1          0.56323      0.22298      0.16723  1.0000
  O2          0.76320      0.37366      0.48451  1.0000
  O1          0.58314      0.33921      0.99513  1.0000
  O1          0.77654      0.45022      0.64908  1.0000
  O2          0.65675      0.26226      0.33189  1.0000
  O2          0.41482      0.67704      0.49560  1.0000
  O3          0.25854      0.59734      0.16784  1.0000
  O1          0.33460      0.77787      0.82686  1.0000
  O1          0.13569      0.22319      0.97285  1.0000
  O2          0.80229      0.94435      0.30211  1.0000
  O2          0.10327      0.91321      0.62408  1.0000
  O2          0.87280      0.81237      0.46118  1.0000
  O1          0.22567      0.11344      0.79653  1.0000
  O3          0.92358      0.12618      0.14474  1.0000
  O2          0.21403      0.13818      0.35675  1.0000
  O1          0.91466      0.79538      0.03025  1.0000
  O3          0.89298      0.09579      0.68269  1.0000
  O1          0.79251      0.88832      0.85494  1.0000
  O2          0.08510      0.23880      0.51748  1.0000
  O2          0.11085      0.89126      0.19411  1.0000
  O2          0.93485      0.88890      0.24655  1.0000
  O2          0.14152      0.09325      0.56712  1.0000
  O1          0.96660      0.09504      0.90664  1.0000
  O3          0.09769      0.15833      0.73090  1.0000
  O3          0.87186      0.96343      0.08346  1.0000
  O2          0.07076      0.94332      0.40877  1.0000
  O1          0.89935      0.20471      0.97566  1.0000
  O2          0.80925      0.72923      0.30839  1.0000
  O3          0.31205      0.12880      0.62690  1.0000
  O2          0.08949      0.81921      0.47414  1.0000
  O1          0.19268      0.32090      0.80411  1.0000
  O2          0.71255      0.90592      0.14891  1.0000
  O2          0.21252      0.92699      0.34801  1.0000
  O1          0.69211      0.80410      0.02213  1.0000
  O2          0.09754      0.31564      0.67437  1.0000
  O1          0.80528      0.12254      0.84793  1.0000
  O2          0.29599      0.23344      0.50702  1.0000
  O3          0.88656      0.69952      0.19295  1.0000
  O3          0.34754      0.67556      0.24669  1.0000
  O3          0.33808      0.69633      0.57176  1.0000
  O1          0.34430      0.71584      0.91478  1.0000
  O1          0.71972      0.37363      0.73699  1.0000
  O1          0.64386      0.34477      0.08654  1.0000
  O2          0.66391      0.35948      0.40793  1.0000
  O1          0.38532      0.35844      0.97233  1.0000
  O2          0.67894      0.07423      0.29977  1.0000
  O3          0.95788      0.66821      0.62575  1.0000
  O2          0.62226      0.69514      0.46163  1.0000
  O1          0.35617      0.99394      0.79870  1.0000
  O1          0.04482      0.38180      0.14607  1.0000
  O3          0.31534      0.38116      0.35439  1.0000
  O1          0.05888      0.69327      0.04167  1.0000
  O1          0.63874      0.95658      0.69099  1.0000
  O1          0.68645      0.64057      0.86695  1.0000
  O2          0.95479      0.35855      0.51782  1.0000
  O3          0.35349      0.04013      0.19174  1.0000
  O1          0.76228      0.28199      0.02050  1.0000
  O2          0.69087      0.49403      0.33726  1.0000
  O1          0.53945      0.25970      0.66929  1.0000
  O2          0.21603      0.70775      0.50219  1.0000
  O1          0.27950      0.53791      0.84613  1.0000
  O2          0.48127      0.79356      0.17770  1.0000
  O3          0.31422      0.80016      0.31917  1.0000
  O1          0.45544      0.67434      0.99174  1.0000
  O3          0.21962      0.54019      0.64424  1.0000
  O1          0.67510      0.23119      0.81451  1.0000
  O2          0.53227      0.34050      0.47866  1.0000
  O1          0.78032      0.45125      0.16517  1.0000
  O1          0.80001      0.53292      0.02333  1.0000
  O2          0.46457      0.28466      0.35271  1.0000
  O1          0.74531      0.21382      0.67369  1.0000
  O2          0.20214      0.48826      0.52293  1.0000
  O1          0.53114      0.74759      0.84965  1.0000
  O2          0.26362      0.79683      0.19507  1.0000
  O3          0.55655      0.83015      0.30543  1.0000
  O1          0.22795      0.47162      0.95677  1.0000
  O3          0.20348      0.76963      0.63236  1.0000
  O1          0.47673      0.25653      0.77609  1.0000
  O2          0.73644      0.56219      0.46021  1.0000
  O1          0.77690      0.23511      0.12797  1.0000
  O1          0.24466      0.31519      0.89113  1.0000
  O2          0.68117      0.93302      0.23122  1.0000
  O2          0.09847      0.78624      0.55605  1.0000
  O2          0.75377      0.69806      0.38992  1.0000
  O1          0.31424      0.07909      0.71496  1.0000
  O1          0.95270      0.25053      0.06437  1.0000
  O2          0.33181      0.26443      0.42559  1.0000
  O1          0.87011      0.66016      0.10603  1.0000
  O1          0.79479      0.13662      0.75764  1.0000
  O1          0.66299      0.79945      0.93211  1.0000
  O2          0.07377      0.34444      0.59052  1.0000
  O2          0.24181      0.92205      0.26507  1.0000
  O1          0.62769      0.58120      0.97847  1.0000
  O2          0.44837      0.04690      0.31813  1.0000
  O3          0.96940      0.42353      0.65090  1.0000
  O2          0.41330      0.46895      0.47874  1.0000
  O1          0.57630      0.96809      0.80857  1.0000
  O1          0.04424      0.61559      0.15793  1.0000
  O3          0.57009      0.62273      0.32961  1.0000
  O1          0.02272      0.45571      0.00555  1.0000
  O1          0.43336      0.99464      0.65614  1.0000
  O1          0.44819      0.44028      0.83109  1.0000
  O2          0.96899      0.58414      0.50233  1.0000
  O3          0.60743      0.04124      0.17089  1.0000
  O3          0.58946      0.19370      0.25134  1.0000
  O3          0.82231      0.43291      0.56633  1.0000
  O1          0.57191      0.40290      0.90704  1.0000
  O1          0.39840      0.83721      0.73842  1.0000
  O1          0.18224      0.57864      0.08340  1.0000
  O3          0.41286      0.61819      0.41392  1.0000
  F           0.47317      0.95881      0.23932  1.0000
  F           0.05716      0.55804      0.58356  1.0000
  F           0.45423      0.55321      0.91175  1.0000
  F           0.54414      0.08003      0.73325  1.0000
  F           0.93062      0.46862      0.08742  1.0000
  F           0.52250      0.49397      0.39898  1.0000
