data_cif

_audit_creation_method             'generated by GULP'

_symmetry_space_group_name_H-M     'P 1'
_symmetry_Int_Tables_number        1
_symmetry_cell_setting             triclinic

_cell_length_a                       12.0237
_cell_length_b                       11.9423
_cell_length_c                       29.5002
_cell_angle_alpha                   89.6442
_cell_angle_beta                    90.2402
_cell_angle_gamma                  120.1819

loop_
_atom_site_label
_atom_site_fract_x
_atom_site_fract_y
_atom_site_fract_z
_atom_site_occupancy
  Si          0.69960      0.37570      0.03389  1.0000
  Si          0.61692      0.31667      0.36576  1.0000
  Ge          0.67666      0.29139      0.70008  1.0000
  Si          0.29537      0.61574      0.52896  1.0000
  Si          0.37295      0.66970      0.86779  1.0000
  Si          0.32215      0.70065      0.19849  1.0000
  Si          0.37573      0.69664      0.29888  1.0000
  Si          0.31783      0.61916      0.96807  1.0000
  Si          0.30020      0.66999      0.62915  1.0000
  Ge          0.62257      0.30476      0.79975  1.0000
  Si          0.67089      0.37111      0.46623  1.0000
  Si          0.70118      0.32040      0.13429  1.0000
  Si          0.52566      0.41594      0.97073  1.0000
  Si          0.57970      0.10727      0.30080  1.0000
  Si          0.88895      0.46533      0.63218  1.0000
  Si          0.46682      0.57667      0.46507  1.0000
  Ge          0.42114      0.88220      0.79909  1.0000
  Si          0.11164      0.52937      0.13355  1.0000
  Si          0.41498      0.52384      0.36357  1.0000
  Si          0.10744      0.58139      0.03206  1.0000
  Si          0.47306      0.87854      0.69452  1.0000
  Si          0.58062      0.47084      0.86916  1.0000
  Si          0.88470      0.41214      0.53009  1.0000
  Si          0.52821      0.10950      0.19925  1.0000
  Si          0.29967      0.39197      0.85295  1.0000
  Si          0.60022      0.90142      0.18435  1.0000
  Si          0.09598      0.69341      0.51505  1.0000
  Si          0.69455      0.59554      0.35003  1.0000
  Ge          0.39878      0.09759      0.68038  1.0000
  Si          0.89941      0.29953      0.01786  1.0000
  Si          0.39322      0.29409      0.48061  1.0000
  Si          0.90288      0.60002      0.14804  1.0000
  Si          0.70833      0.10372      0.81389  1.0000
  Si          0.59551      0.69845      0.98319  1.0000
  Si          0.09728      0.39102      0.64452  1.0000
  Si          0.29850      0.89732      0.31418  1.0000
  Si          0.24764      0.33709      0.95399  1.0000
  Si          0.65726      0.90627      0.28498  1.0000
  Si          0.09408      0.74499      0.61540  1.0000
  Si          0.74440      0.65346      0.45052  1.0000
  Si          0.33524      0.08631      0.78315  1.0000
  Si          0.90959      0.24961      0.11852  1.0000
  Si          0.33727      0.24443      0.37982  1.0000
  Si          0.90720      0.65817      0.04746  1.0000
  Si          0.75563      0.08558      0.71126  1.0000
  Si          0.65398      0.75052      0.88257  1.0000
  Si          0.08602      0.33494      0.54374  1.0000
  Si          0.24936      0.90862      0.21355  1.0000
  Si          0.96775      0.12028      0.96742  1.0000
  Si          0.87500      0.84452      0.29926  1.0000
  Si          0.14605      0.02303      0.62996  1.0000
  Si          0.02419      0.87133      0.46460  1.0000
  Si          0.11983      0.14550      0.80020  1.0000
  Si          0.84768      0.96928      0.13383  1.0000
  Si          0.11830      0.96460      0.36395  1.0000
  Si          0.84450      0.87629      0.03298  1.0000
  Si          0.03149      0.14330      0.69780  1.0000
  Si          0.88034      0.02841      0.86597  1.0000
  Si          0.14249      0.11449      0.52966  1.0000
  Si          0.97025      0.84765      0.19871  1.0000
  O2          0.92339      0.99689      0.99960  1.0000
  O2          0.99827      0.92508      0.33089  1.0000
  O2          0.07138      0.05976      0.66687  1.0000
  O2          0.06620      0.99423      0.49636  1.0000
  O2          0.99842      0.06274      0.83276  1.0000
  O2          0.92863      0.92754      0.16581  1.0000
  O2          0.33778      0.57197      0.33102  1.0000
  O2          0.42503      0.75403      0.66155  1.0000
  O2          0.23282      0.65809      0.99971  1.0000
  O3          0.66027      0.42592      0.83936  1.0000
  O2          0.57892      0.23674      0.16712  1.0000
  O2          0.75687      0.33425      0.49878  1.0000
  O2          0.57403      0.33803      0.00267  1.0000
  O3          0.77214      0.42509      0.66446  1.0000
  O2          0.65574      0.23198      0.33346  1.0000
  O2          0.41823      0.65444      0.49642  1.0000
  O2          0.23740      0.57802      0.16547  1.0000
  O3          0.33424      0.75170      0.83463  1.0000
  O2          0.12125      0.21104      0.97420  1.0000
  O2          0.78355      0.90672      0.30493  1.0000
  O2          0.09316      0.86969      0.63638  1.0000
  O2          0.87062      0.77978      0.47058  1.0000
  O2          0.20757      0.07991      0.80489  1.0000
  O2          0.91127      0.12402      0.13887  1.0000
  O2          0.21103      0.11917      0.35918  1.0000
  O2          0.90597      0.78419      0.02721  1.0000
  O2          0.87716      0.07342      0.69421  1.0000
  O2          0.78167      0.87483      0.86219  1.0000
  O2          0.08274      0.20785      0.52282  1.0000
  O2          0.12417      0.91100      0.19377  1.0000
  O2          0.92735      0.85905      0.24867  1.0000
  O2          0.11786      0.05806      0.58025  1.0000
  O2          0.93379      0.07039      0.91637  1.0000
  O2          0.07149      0.14025      0.74943  1.0000
  O2          0.86020      0.93001      0.08327  1.0000
  O2          0.06201      0.92297      0.41384  1.0000
  O2          0.89788      0.20200      0.97919  1.0000
  O2          0.79328      0.69230      0.31155  1.0000
  O3          0.29587      0.09723      0.63857  1.0000
  O2          0.09523      0.79094      0.47655  1.0000
  O2          0.20256      0.29627      0.81438  1.0000
  O2          0.69678      0.89999      0.14618  1.0000
  O2          0.19956      0.89432      0.35215  1.0000
  O2          0.69264      0.79570      0.02156  1.0000
  O2          0.09928      0.29353      0.68292  1.0000
  O2          0.80659      0.10424      0.85187  1.0000
  O2          0.29540      0.19618      0.51915  1.0000
  O2          0.90163      0.69583      0.18649  1.0000
  O2          0.31987      0.64049      0.24846  1.0000
  O2          0.35699      0.67244      0.57884  1.0000
  O2          0.31612      0.67378      0.91747  1.0000
  O1          0.68082      0.37786      0.74871  1.0000
  O2          0.64315      0.31820      0.08404  1.0000
  O2          0.67212      0.31460      0.41613  1.0000
  O2          0.36967      0.32875      0.97318  1.0000
  O2          0.66687      0.03843      0.30343  1.0000
  O2          0.96357      0.62309      0.63365  1.0000
  O2          0.62276      0.66420      0.46828  1.0000
  O3          0.32296      0.94891      0.79364  1.0000
  O2          0.04252      0.37245      0.13618  1.0000
  O2          0.32772      0.36701      0.36089  1.0000
  O2          0.03896      0.66901      0.02860  1.0000
  O2          0.62884      0.96099      0.69038  1.0000
  O2          0.66399      0.62805      0.86520  1.0000
  O2          0.95367      0.32521      0.52618  1.0000
  O2          0.37254      0.04172      0.19549  1.0000
  O2          0.76594      0.30038      0.01053  1.0000
  O2          0.69295      0.46036      0.34294  1.0000
  O1          0.53798      0.23329      0.66711  1.0000
  O2          0.22846      0.69215      0.50632  1.0000
  O2          0.30054      0.52671      0.84481  1.0000
  O2          0.46518      0.76832      0.17622  1.0000
  O2          0.29962      0.76324      0.32115  1.0000
  O2          0.46088      0.69599      0.99047  1.0000
  O2          0.23185      0.52601      0.65186  1.0000
  O3          0.71889      0.24101      0.81783  1.0000
  O2          0.52741      0.29511      0.48837  1.0000
  O2          0.76993      0.46489      0.15579  1.0000
  O2          0.78029      0.53240      0.02827  1.0000
  O2          0.46132      0.24181      0.36052  1.0000
  O3          0.77244      0.21783      0.69332  1.0000
  O2          0.21302      0.45911      0.52361  1.0000
  O2          0.53030      0.75376      0.86164  1.0000
  O2          0.24775      0.78232      0.19351  1.0000
  O2          0.53137      0.77922      0.30407  1.0000
  O2          0.24620      0.46272      0.97282  1.0000
  O2          0.22176      0.74730      0.63441  1.0000
  O3          0.45824      0.20177      0.80762  1.0000
  O2          0.74440      0.52767      0.47063  1.0000
  O2          0.78437      0.24790      0.13873  1.0000
  O2          0.23069      0.31870      0.89972  1.0000
  O2          0.67429      0.90502      0.23070  1.0000
  O2          0.09656      0.76671      0.56111  1.0000
  O2          0.76438      0.67087      0.39623  1.0000
  O3          0.32620      0.10806      0.72996  1.0000
  O2          0.90459      0.22904      0.06422  1.0000
  O2          0.31940      0.22412      0.43410  1.0000
  O2          0.90700      0.67551      0.10170  1.0000
  O2          0.75659      0.07690      0.76623  1.0000
  O2          0.66934      0.77076      0.93688  1.0000
  O2          0.09119      0.31674      0.59799  1.0000
  O2          0.22984      0.90424      0.26775  1.0000
  O2          0.58077      0.55845      0.99247  1.0000
  O2          0.43828      0.02186      0.32334  1.0000
  O2          0.97485      0.40713      0.65375  1.0000
  O2          0.40943      0.43495      0.48855  1.0000
  O3          0.56380      0.99197      0.82455  1.0000
  O2          0.02765      0.58572      0.15656  1.0000
  O2          0.55595      0.58178      0.34054  1.0000
  O2          0.02437      0.43982      0.00880  1.0000
  O3          0.40663      0.95731      0.67676  1.0000
  O2          0.43960      0.40744      0.84471  1.0000
  O2          0.96882      0.55426      0.50694  1.0000
  O2          0.58669      0.02756      0.17570  1.0000
  O2          0.58036      0.16185      0.25005  1.0000
  O2          0.83642      0.41212      0.58109  1.0000
  O2          0.57826      0.41775      0.92021  1.0000
  O3          0.43694      0.83007      0.74630  1.0000
  O2          0.16240      0.58277      0.08258  1.0000
  O2          0.41499      0.57703      0.41409  1.0000
  F           0.44917      0.89961      0.24851  1.0000
  F           0.10255      0.54579      0.57889  1.0000
  F           0.44798      0.55139      0.91633  1.0000
  F           0.56524      0.13410      0.74058  1.0000
  F           0.90120      0.45024      0.08219  1.0000
  F           0.54431      0.44496      0.41462  1.0000
