data_cif

_audit_creation_method             'generated by GULP'

_symmetry_space_group_name_H-M     'P 1'
_symmetry_Int_Tables_number        1
_symmetry_cell_setting             triclinic

_cell_length_a                       11.9423
_cell_length_b                       11.9502
_cell_length_c                       29.5002
_cell_angle_alpha                   89.8861
_cell_angle_beta                    90.3558
_cell_angle_gamma                  119.5710

loop_
_atom_site_label
_atom_site_fract_x
_atom_site_fract_y
_atom_site_fract_z
_atom_site_occupancy
  Si          0.69960      0.37570      0.03389  1.0000
  Si          0.61785      0.32490      0.36459  1.0000
  Si          0.67598      0.29812      0.69507  1.0000
  Si          0.29660      0.61967      0.53186  1.0000
  Ge          0.38161      0.67941      0.86618  1.0000
  Si          0.32025      0.70235      0.19999  1.0000
  Si          0.37713      0.70393      0.30039  1.0000
  Ge          0.31416      0.62532      0.96585  1.0000
  Si          0.29612      0.67364      0.63234  1.0000
  Si          0.62656      0.30295      0.79526  1.0000
  Si          0.67544      0.37848      0.46498  1.0000
  Si          0.69502      0.32058      0.13418  1.0000
  Ge          0.53529      0.42389      0.96520  1.0000
  Si          0.57862      0.11439      0.29966  1.0000
  Si          0.88651      0.46957      0.63117  1.0000
  Si          0.46878      0.58245      0.46690  1.0000
  Si          0.41996      0.89170      0.79828  1.0000
  Si          0.10606      0.52841      0.13683  1.0000
  Si          0.41506      0.53096      0.36535  1.0000
  Si          0.10613      0.58337      0.03527  1.0000
  Si          0.46891      0.88745      0.69619  1.0000
  Si          0.59087      0.47581      0.86063  1.0000
  Si          0.88749      0.41773      0.52967  1.0000
  Si          0.52240      0.11019      0.19816  1.0000
  Ge          0.29754      0.40154      0.84648  1.0000
  Si          0.59623      0.90216      0.18396  1.0000
  Si          0.09536      0.69730      0.51613  1.0000
  Si          0.69515      0.60297      0.35045  1.0000
  Si          0.39892      0.09873      0.68115  1.0000
  Si          0.90405      0.30242      0.01905  1.0000
  Si          0.39754      0.30125      0.48029  1.0000
  Si          0.89341      0.59826      0.14930  1.0000
  Si          0.70262      0.10003      0.81063  1.0000
  Si          0.60096      0.71108      0.98000  1.0000
  Si          0.09547      0.39597      0.64671  1.0000
  Si          0.29921      0.90563      0.31414  1.0000
  Si          0.24528      0.33799      0.94926  1.0000
  Si          0.65633      0.91234      0.28462  1.0000
  Si          0.08729      0.74715      0.61663  1.0000
  Si          0.74734      0.66001      0.45109  1.0000
  Si          0.34544      0.09683      0.78150  1.0000
  Si          0.90690      0.25039      0.12009  1.0000
  Si          0.33709      0.25211      0.37965  1.0000
  Si          0.89980      0.65673      0.04868  1.0000
  Si          0.74744      0.08877      0.70985  1.0000
  Si          0.66640      0.75838      0.87736  1.0000
  Si          0.08918      0.34002      0.54592  1.0000
  Si          0.24538      0.90995      0.21357  1.0000
  Si          0.97068      0.12258      0.96630  1.0000
  Si          0.87474      0.85043      0.29994  1.0000
  Si          0.14921      0.02694      0.63070  1.0000
  Si          0.02684      0.87776      0.46537  1.0000
  Si          0.11937      0.14880      0.79607  1.0000
  Si          0.84382      0.97050      0.13353  1.0000
  Si          0.11894      0.97300      0.36481  1.0000
  Si          0.84828      0.88309      0.03207  1.0000
  Si          0.02435      0.14524      0.69577  1.0000
  Si          0.88454      0.03424      0.86390  1.0000
  Si          0.15005      0.12105      0.53005  1.0000
  Si          0.96456      0.84725      0.19908  1.0000
  O2          0.93202      0.00117      0.99886  1.0000
  O2          0.99744      0.93139      0.33192  1.0000
  O2          0.06831      0.06895      0.66246  1.0000
  O2          0.06955      0.00102      0.49699  1.0000
  O2          0.00796      0.07413      0.83298  1.0000
  O2          0.92285      0.92614      0.16570  1.0000
  O2          0.33852      0.58167      0.33322  1.0000
  O2          0.41897      0.75962      0.66488  1.0000
  O3          0.23070      0.66302      0.00546  1.0000
  O2          0.66735      0.42778      0.82765  1.0000
  O2          0.57108      0.23557      0.16581  1.0000
  O2          0.76216      0.34053      0.49712  1.0000
  O3          0.57889      0.33699      0.00073  1.0000
  O2          0.76014      0.42098      0.66252  1.0000
  O2          0.65574      0.24016      0.33158  1.0000
  O2          0.42011      0.65849      0.49956  1.0000
  O2          0.23235      0.57678      0.16878  1.0000
  O3          0.34340      0.77490      0.83057  1.0000
  O2          0.12401      0.21032      0.97100  1.0000
  O2          0.78359      0.91402      0.30498  1.0000
  O2          0.08719      0.87337      0.63669  1.0000
  O2          0.87317      0.78630      0.47103  1.0000
  O2          0.21982      0.09591      0.80248  1.0000
  O2          0.90656      0.12400      0.14031  1.0000
  O2          0.20952      0.12692      0.35988  1.0000
  O2          0.90319      0.78442      0.02830  1.0000
  O2          0.87124      0.08549      0.68892  1.0000
  O2          0.80009      0.87991      0.86032  1.0000
  O2          0.08822      0.21378      0.52528  1.0000
  O2          0.11814      0.90872      0.19332  1.0000
  O2          0.92653      0.86295      0.24938  1.0000
  O2          0.13539      0.06476      0.57995  1.0000
  O2          0.92758      0.07423      0.91553  1.0000
  O2          0.05615      0.12061      0.74636  1.0000
  O2          0.85975      0.93654      0.08247  1.0000
  O2          0.06464      0.93010      0.41478  1.0000
  O2          0.90264      0.20531      0.98049  1.0000
  O2          0.79313      0.69953      0.31228  1.0000
  O2          0.30063      0.09798      0.64266  1.0000
  O2          0.09732      0.79603      0.47765  1.0000
  O3          0.19499      0.29862      0.80467  1.0000
  O2          0.69223      0.90063      0.14530  1.0000
  O2          0.20215      0.90438      0.35260  1.0000
  O2          0.69870      0.80934      0.01798  1.0000
  O2          0.09557      0.29815      0.68525  1.0000
  O2          0.80210      0.10204      0.84902  1.0000
  O2          0.30159      0.20231      0.51825  1.0000
  O2          0.89328      0.69539      0.18766  1.0000
  O2          0.32130      0.64590      0.25014  1.0000
  O2          0.35387      0.67487      0.58223  1.0000
  O1          0.29931      0.68357      0.91482  1.0000
  O2          0.68090      0.35974      0.74495  1.0000
  O2          0.63869      0.31887      0.08358  1.0000
  O2          0.67573      0.32262      0.41456  1.0000
  O3          0.37040      0.32571      0.95974  1.0000
  O2          0.66641      0.04527      0.30228  1.0000
  O2          0.95491      0.62551      0.63439  1.0000
  O2          0.62479      0.66962      0.46954  1.0000
  O2          0.33683      0.96632      0.79975  1.0000
  O2          0.03726      0.37242      0.13928  1.0000
  O2          0.32717      0.37529      0.36160  1.0000
  O2          0.03229      0.66674      0.03131  1.0000
  O2          0.62481      0.95642      0.69229  1.0000
  O2          0.66420      0.63159      0.85649  1.0000
  O2          0.95706      0.33047      0.52699  1.0000
  O2          0.36630      0.04171      0.19471  1.0000
  O2          0.77017      0.30329      0.01091  1.0000
  O2          0.69322      0.46793      0.34232  1.0000
  O2          0.53265      0.23120      0.67242  1.0000
  O2          0.22894      0.69570      0.50904  1.0000
  O1          0.30104      0.54073      0.83321  1.0000
  O2          0.46190      0.76869      0.17663  1.0000
  O2          0.30139      0.77268      0.32189  1.0000
  O3          0.47422      0.72164      0.98393  1.0000
  O2          0.22865      0.53016      0.65447  1.0000
  O2          0.70219      0.23460      0.81796  1.0000
  O2          0.53272      0.30237      0.48726  1.0000
  O2          0.76124      0.46363      0.15657  1.0000
  O2          0.77289      0.53305      0.02774  1.0000
  O2          0.46177      0.25050      0.35961  1.0000
  O2          0.75026      0.21577      0.68971  1.0000
  O2          0.21586      0.46407      0.52663  1.0000
  O3          0.55096      0.77519      0.85942  1.0000
  O2          0.24424      0.78304      0.19437  1.0000
  O2          0.53282      0.78713      0.30483  1.0000
  O3          0.25282      0.46099      0.97372  1.0000
  O2          0.21308      0.74715      0.63674  1.0000
  O2          0.47081      0.22451      0.80052  1.0000
  O2          0.74850      0.53412      0.47018  1.0000
  O2          0.77982      0.24895      0.13892  1.0000
  O3          0.21449      0.32895      0.89606  1.0000
  O2          0.67190      0.90734      0.23033  1.0000
  O2          0.08985      0.76713      0.56234  1.0000
  O2          0.76562      0.67704      0.39681  1.0000
  O2          0.32619      0.09931      0.72722  1.0000
  O2          0.90834      0.23344      0.06582  1.0000
  O2          0.32195      0.23260      0.43385  1.0000
  O2          0.89494      0.67209      0.10298  1.0000
  O2          0.77080      0.09394      0.76410  1.0000
  O2          0.67603      0.75934      0.93233  1.0000
  O2          0.09162      0.32215      0.60020  1.0000
  O2          0.22784      0.90975      0.26781  1.0000
  O3          0.56818      0.56656      0.99065  1.0000
  O2          0.43827      0.03040      0.32267  1.0000
  O2          0.97083      0.41218      0.65466  1.0000
  O2          0.41277      0.44103      0.48945  1.0000
  O2          0.56407      0.97760      0.81985  1.0000
  O2          0.01866      0.58352      0.15857  1.0000
  O2          0.55548      0.58944      0.34181  1.0000
  O2          0.02852      0.44235      0.01081  1.0000
  O2          0.41091      0.97157      0.67304  1.0000
  O3          0.44566      0.40938      0.84286  1.0000
  O2          0.97052      0.55870      0.50664  1.0000
  O2          0.58090      0.02712      0.17490  1.0000
  O2          0.57598      0.16515      0.24868  1.0000
  O2          0.83431      0.41774      0.58019  1.0000
  O3          0.60321      0.43969      0.91240  1.0000
  O2          0.42065      0.83917      0.74720  1.0000
  O2          0.15685      0.58101      0.08631  1.0000
  O2          0.41485      0.58311      0.41616  1.0000
  F           0.44731      0.90396      0.24829  1.0000
  F           0.09570      0.54706      0.58072  1.0000
  F           0.42749      0.56799      0.90669  1.0000
  F           0.55311      0.10530      0.74500  1.0000
  F           0.89294      0.45073      0.08244  1.0000
  F           0.54591      0.45192      0.41461  1.0000
