data_cif

_audit_creation_method             'generated by GULP'

_symmetry_space_group_name_H-M     'P 1'
_symmetry_Int_Tables_number        1
_symmetry_cell_setting             triclinic

_cell_length_a                       11.9491
_cell_length_b                       11.9507
_cell_length_c                       29.5253
_cell_angle_alpha                   90.3051
_cell_angle_beta                    89.7081
_cell_angle_gamma                  119.5915

loop_
_atom_site_label
_atom_site_fract_x
_atom_site_fract_y
_atom_site_fract_z
_atom_site_occupancy
  Si          0.69960      0.37570      0.03389  1.0000
  Ge          0.61525      0.32024      0.36885  1.0000
  Si          0.67599      0.29178      0.70323  1.0000
  Si          0.29212      0.61030      0.53629  1.0000
  Si          0.37832      0.66845      0.86647  1.0000
  Si          0.32106      0.70210      0.19655  1.0000
  Si          0.37163      0.70233      0.29634  1.0000
  Si          0.32095      0.61677      0.96674  1.0000
  Si          0.29948      0.67108      0.63642  1.0000
  Si          0.61833      0.28802      0.80352  1.0000
  Ge          0.67958      0.37057      0.46915  1.0000
  Si          0.70254      0.32389      0.13421  1.0000
  Si          0.52647      0.41262      0.96959  1.0000
  Si          0.58296      0.11228      0.30073  1.0000
  Si          0.88928      0.46690      0.64064  1.0000
  Si          0.46624      0.57960      0.46810  1.0000
  Si          0.41750      0.87817      0.80146  1.0000
  Si          0.11115      0.52821      0.13237  1.0000
  Ge          0.41554      0.53404      0.36342  1.0000
  Si          0.10903      0.57839      0.03098  1.0000
  Si          0.47338      0.88276      0.70003  1.0000
  Si          0.58052      0.46181      0.86821  1.0000
  Si          0.88487      0.40912      0.53945  1.0000
  Si          0.53024      0.11284      0.19855  1.0000
  Si          0.30045      0.38969      0.85288  1.0000
  Si          0.59897      0.90010      0.18359  1.0000
  Si          0.08968      0.68833      0.52221  1.0000
  Si          0.70271      0.59683      0.34833  1.0000
  Si          0.40014      0.09154      0.68666  1.0000
  Si          0.90076      0.29831      0.01790  1.0000
  Si          0.39276      0.28898      0.48284  1.0000
  Si          0.90283      0.60180      0.14805  1.0000
  Si          0.69661      0.08666      0.81657  1.0000
  Si          0.59841      0.69407      0.98275  1.0000
  Si          0.09964      0.39504      0.65327  1.0000
  Si          0.29956      0.90588      0.31319  1.0000
  Si          0.24819      0.33482      0.95347  1.0000
  Si          0.65315      0.90308      0.28402  1.0000
  Si          0.08942      0.74327      0.62302  1.0000
  Si          0.74917      0.65786      0.45153  1.0000
  Si          0.33941      0.07997      0.78719  1.0000
  Si          0.91081      0.25003      0.11833  1.0000
  Ge          0.33117      0.24145      0.38031  1.0000
  Si          0.90736      0.65602      0.04742  1.0000
  Si          0.75032      0.08341      0.71603  1.0000
  Si          0.65889      0.74106      0.88220  1.0000
  Si          0.08708      0.33143      0.55305  1.0000
  Si          0.25087      0.91315      0.21247  1.0000
  Si          0.96891      0.11700      0.96777  1.0000
  Si          0.87486      0.84552      0.29926  1.0000
  Si          0.15283      0.02359      0.63614  1.0000
  Si          0.02666      0.87143      0.46876  1.0000
  Si          0.12071      0.14133      0.80241  1.0000
  Si          0.84828      0.97016      0.13332  1.0000
  Si          0.11131      0.96286      0.36669  1.0000
  Si          0.84604      0.87460      0.03262  1.0000
  Si          0.03099      0.14623      0.70180  1.0000
  Si          0.87711      0.01964      0.86729  1.0000
  Si          0.14671      0.11289      0.53537  1.0000
  Si          0.97168      0.85103      0.19860  1.0000
  O2          0.92633      0.99567      0.00022  1.0000
  O2          0.98604      0.91436      0.33586  1.0000
  O2          0.07418      0.06962      0.66783  1.0000
  O2          0.07029      0.99500      0.50083  1.0000
  O2          0.99865      0.06106      0.83460  1.0000
  O2          0.92756      0.92933      0.16643  1.0000
  O3          0.33084      0.58131      0.32903  1.0000
  O2          0.42505      0.75757      0.66739  1.0000
  O2          0.23388      0.65530      0.99849  1.0000
  O2          0.65701      0.41029      0.83655  1.0000
  O2          0.58023      0.23952      0.16698  1.0000
  O3          0.76057      0.33157      0.50915  1.0000
  O2          0.57503      0.33647      0.00217  1.0000
  O2          0.76366      0.41866      0.67284  1.0000
  O3          0.66148      0.23214      0.33187  1.0000
  O2          0.41558      0.64858      0.50351  1.0000
  O2          0.23792      0.57939      0.16376  1.0000
  O2          0.34052      0.75219      0.83314  1.0000
  O2          0.12247      0.20894      0.97347  1.0000
  O2          0.77995      0.90455      0.30429  1.0000
  O2          0.09045      0.87030      0.64318  1.0000
  O2          0.87146      0.78766      0.47127  1.0000
  O2          0.21190      0.07786      0.80744  1.0000
  O2          0.91164      0.12425      0.13833  1.0000
  O3          0.18418      0.11373      0.36228  1.0000
  O2          0.90751      0.78173      0.02687  1.0000
  O2          0.87741      0.08451      0.69579  1.0000
  O2          0.78656      0.86560      0.86242  1.0000
  O2          0.07954      0.20126      0.53298  1.0000
  O2          0.12546      0.91468      0.19229  1.0000
  O2          0.93619      0.86705      0.24963  1.0000
  O2          0.13722      0.05524      0.58484  1.0000
  O2          0.93108      0.06244      0.91739  1.0000
  O2          0.06821      0.12798      0.75193  1.0000
  O2          0.86168      0.92853      0.08306  1.0000
  O2          0.06975      0.91630      0.41798  1.0000
  O2          0.89837      0.19909      0.97947  1.0000
  O2          0.79638      0.69408      0.30970  1.0000
  O2          0.30434      0.09375      0.64811  1.0000
  O2          0.08959      0.78479      0.48370  1.0000
  O2          0.20253      0.29244      0.81475  1.0000
  O2          0.69700      0.90108      0.14508  1.0000
  O2          0.20334      0.90517      0.35210  1.0000
  O2          0.69444      0.79384      0.02077  1.0000
  O2          0.10123      0.29882      0.69165  1.0000
  O2          0.79385      0.08793      0.85498  1.0000
  O2          0.29633      0.20225      0.52338  1.0000
  O2          0.90272      0.69948      0.18658  1.0000
  O2          0.31738      0.64138      0.24626  1.0000
  O2          0.35337      0.67041      0.58562  1.0000
  O2          0.32076      0.67191      0.91634  1.0000
  O2          0.67455      0.34682      0.75361  1.0000
  O2          0.64361      0.32143      0.08430  1.0000
  O1          0.68122      0.29949      0.41930  1.0000
  O2          0.37056      0.32554      0.97229  1.0000
  O2          0.66438      0.03552      0.30183  1.0000
  O2          0.95804      0.62309      0.64245  1.0000
  O2          0.62187      0.65391      0.47280  1.0000
  O2          0.32955      0.94701      0.80453  1.0000
  O2          0.04331      0.37235      0.13604  1.0000
  O1          0.31479      0.37129      0.36688  1.0000
  O2          0.03933      0.66552      0.02854  1.0000
  O2          0.62947      0.95162      0.69696  1.0000
  O2          0.66852      0.61741      0.86447  1.0000
  O2          0.95598      0.32344      0.53530  1.0000
  O2          0.37436      0.04367      0.19444  1.0000
  O2          0.76682      0.29922      0.01111  1.0000
  O3          0.71572      0.47194      0.34354  1.0000
  O2          0.53427      0.22522      0.67986  1.0000
  O2          0.22119      0.68250      0.51340  1.0000
  O2          0.30274      0.52471      0.84458  1.0000
  O2          0.46430      0.76939      0.17408  1.0000
  O2          0.29584      0.76960      0.31955  1.0000
  O2          0.46333      0.69324      0.98943  1.0000
  O2          0.23372      0.52888      0.65928  1.0000
  O2          0.69391      0.21919      0.82498  1.0000
  O3          0.52754      0.30062      0.49457  1.0000
  O2          0.77027      0.46764      0.15621  1.0000
  O2          0.78073      0.53116      0.02840  1.0000
  O1          0.45201      0.23214      0.35358  1.0000
  O2          0.75122      0.21042      0.69724  1.0000
  O2          0.21437      0.45405      0.53257  1.0000
  O2          0.53431      0.74218      0.86190  1.0000
  O2          0.24774      0.78563      0.19260  1.0000
  O2          0.52848      0.77577      0.30409  1.0000
  O2          0.24703      0.46116      0.97227  1.0000
  O2          0.21631      0.74429      0.64186  1.0000
  O2          0.46263      0.20512      0.80783  1.0000
  O3          0.76054      0.53834      0.46846  1.0000
  O2          0.78514      0.24989      0.13859  1.0000
  O2          0.23002      0.31666      0.89924  1.0000
  O2          0.67032      0.89765      0.22974  1.0000
  O2          0.08952      0.76053      0.56872  1.0000
  O2          0.75169      0.67044      0.39705  1.0000
  O2          0.32414      0.08549      0.73297  1.0000
  O2          0.90753      0.22947      0.06410  1.0000
  O3          0.32480      0.20898      0.43827  1.0000
  O2          0.90563      0.67480      0.10165  1.0000
  O2          0.76819      0.08352      0.77024  1.0000
  O2          0.67403      0.76176      0.93638  1.0000
  O2          0.09246      0.31726      0.60727  1.0000
  O2          0.23238      0.91405      0.26667  1.0000
  O2          0.58304      0.55438      0.99223  1.0000
  O2          0.43980      0.02617      0.32286  1.0000
  O2          0.97619      0.41227      0.66322  1.0000
  O2          0.40460      0.43003      0.48122  1.0000
  O2          0.55786      0.96128      0.82473  1.0000
  O2          0.02809      0.58680      0.15593  1.0000
  O3          0.55874      0.56704      0.33807  1.0000
  O2          0.02498      0.43697      0.00820  1.0000
  O2          0.41563      0.96678      0.67718  1.0000
  O2          0.44012      0.40327      0.84460  1.0000
  O2          0.96294      0.54975      0.51506  1.0000
  O2          0.58751      0.02753      0.17608  1.0000
  O2          0.57878      0.16125      0.24946  1.0000
  O2          0.83500      0.41176      0.59051  1.0000
  O2          0.58040      0.41076      0.91909  1.0000
  O2          0.41965      0.82751      0.75042  1.0000
  O2          0.16281      0.57880      0.08143  1.0000
  O3          0.43111      0.59850      0.41765  1.0000
  F           0.44648      0.89194      0.24888  1.0000
  F           0.09601      0.54067      0.58710  1.0000
  F           0.44976      0.54203      0.91749  1.0000
  F           0.54835      0.08868      0.75129  1.0000
  F           0.90171      0.44938      0.08276  1.0000
  F           0.55184      0.41336      0.41003  1.0000
