data_cif

_audit_creation_method             'generated by GULP'

_symmetry_space_group_name_H-M     'P 1'
_symmetry_Int_Tables_number        1
_symmetry_cell_setting             triclinic

_cell_length_a                       12.0408
_cell_length_b                       11.9659
_cell_length_c                       29.4727
_cell_angle_alpha                   90.1040
_cell_angle_beta                    90.3284
_cell_angle_gamma                  119.8156

loop_
_atom_site_label
_atom_site_fract_x
_atom_site_fract_y
_atom_site_fract_z
_atom_site_occupancy
  Ge          0.69960      0.37570      0.03389  1.0000
  Ge          0.58300      0.29389      0.36827  1.0000
  Ge          0.65907      0.25346      0.70016  1.0000
  Si          0.27495      0.58002      0.52964  1.0000
  Ge          0.38117      0.65231      0.86546  1.0000
  Ge          0.30379      0.69697      0.19911  1.0000
  Si          0.34095      0.65610      0.29660  1.0000
  Si          0.30495      0.62025      0.96299  1.0000
  Si          0.28769      0.64293      0.62959  1.0000
  Si          0.62099      0.28683      0.79822  1.0000
  Si          0.65886      0.33154      0.46611  1.0000
  Si          0.66511      0.30258      0.13168  1.0000
  Si          0.52031      0.41133      0.96752  1.0000
  Si          0.54532      0.08012      0.30035  1.0000
  Si          0.87355      0.43198      0.63520  1.0000
  Si          0.44655      0.54038      0.46508  1.0000
  Si          0.41819      0.86214      0.79587  1.0000
  Si          0.08882      0.52131      0.13172  1.0000
  Si          0.38863      0.48822      0.36198  1.0000
  Si          0.09110      0.57439      0.02825  1.0000
  Si          0.46722      0.86062      0.69219  1.0000
  Si          0.57532      0.45571      0.86400  1.0000
  Si          0.87077      0.37845      0.53266  1.0000
  Si          0.49662      0.08832      0.19680  1.0000
  Si          0.29102      0.37905      0.84395  1.0000
  Si          0.57379      0.87913      0.17719  1.0000
  Si          0.07567      0.65680      0.51503  1.0000
  Si          0.67329      0.56541      0.34455  1.0000
  Si          0.39023      0.07158      0.67580  1.0000
  Si          0.88170      0.28798      0.00994  1.0000
  Si          0.37599      0.25452      0.47749  1.0000
  Si          0.87040      0.58728      0.14265  1.0000
  Si          0.70183      0.08149      0.80773  1.0000
  Si          0.58762      0.69782      0.97654  1.0000
  Si          0.08865      0.36539      0.64542  1.0000
  Si          0.26166      0.86148      0.30926  1.0000
  Si          0.24170      0.33603      0.94713  1.0000
  Si          0.62189      0.87589      0.28041  1.0000
  Si          0.07528      0.70950      0.61576  1.0000
  Si          0.72484      0.61626      0.44807  1.0000
  Si          0.34091      0.06743      0.77892  1.0000
  Si          0.88389      0.24056      0.11315  1.0000
  Si          0.30311      0.20215      0.37517  1.0000
  Si          0.88896      0.65683      0.04027  1.0000
  Si          0.75058      0.06271      0.70519  1.0000
  Si          0.66056      0.74250      0.87443  1.0000
  Si          0.07231      0.30128      0.54468  1.0000
  Si          0.21249      0.88731      0.20705  1.0000
  Si          0.96664      0.11798      0.96130  1.0000
  Si          0.84173      0.82004      0.29586  1.0000
  Si          0.13530      0.98804      0.62799  1.0000
  Si          0.00224      0.83302      0.46342  1.0000
  Si          0.12118      0.12231      0.79502  1.0000
  Si          0.82767      0.96484      0.12865  1.0000
  Si          0.08148      0.92755      0.36185  1.0000
  Si          0.83688      0.87918      0.02742  1.0000
  Si          0.02417      0.11605      0.69439  1.0000
  Si          0.88325      0.01468      0.86045  1.0000
  Si          0.12781      0.07880      0.52769  1.0000
  Si          0.93935      0.83632      0.19482  1.0000
  O2          0.91952      0.99953      0.99536  1.0000
  O2          0.95976      0.89245      0.33031  1.0000
  O2          0.06538      0.03759      0.66140  1.0000
  O2          0.04645      0.95949      0.49391  1.0000
  O2          0.00392      0.04902      0.82911  1.0000
  O2          0.90068      0.91972      0.16303  1.0000
  O2          0.31215      0.54305      0.33291  1.0000
  O2          0.41286      0.73179      0.66089  1.0000
  O2          0.22067      0.64993      0.99881  1.0000
  O2          0.64995      0.39736      0.83589  1.0000
  O2          0.55418      0.22093      0.16844  1.0000
  O2          0.74019      0.30117      0.50278  1.0000
  O3          0.56168      0.33602      0.00004  1.0000
  O3          0.75622      0.39146      0.66682  1.0000
  O3          0.62104      0.19679      0.33288  1.0000
  O2          0.39770      0.61614      0.49696  1.0000
  O3          0.20654      0.56210      0.16359  1.0000
  O3          0.34307      0.74515      0.82791  1.0000
  O2          0.11866      0.21060      0.96821  1.0000
  O2          0.74834      0.87947      0.30167  1.0000
  O2          0.07327      0.83539      0.63543  1.0000
  O2          0.84929      0.74109      0.46920  1.0000
  O2          0.21367      0.06144      0.80001  1.0000
  O2          0.88876      0.11814      0.13445  1.0000
  O2          0.16584      0.08214      0.35955  1.0000
  O2          0.90513      0.79332      0.02375  1.0000
  O2          0.87088      0.04669      0.68924  1.0000
  O2          0.79833      0.86016      0.85869  1.0000
  O2          0.06837      0.17306      0.52411  1.0000
  O2          0.09282      0.90561      0.19152  1.0000
  O2          0.89581      0.84124      0.24551  1.0000
  O2          0.11382      0.02126      0.57731  1.0000
  O2          0.93439      0.06411      0.91070  1.0000
  O2          0.06452      0.10277      0.74486  1.0000
  O2          0.84610      0.92983      0.07817  1.0000
  O2          0.03368      0.87800      0.41195  1.0000
  O2          0.89618      0.19913      0.97169  1.0000
  O2          0.76174      0.66860      0.30665  1.0000
  O2          0.28639      0.05718      0.63778  1.0000
  O2          0.07300      0.75305      0.47644  1.0000
  O2          0.20228      0.27342      0.80628  1.0000
  O2          0.67745      0.89534      0.13942  1.0000
  O2          0.16352      0.86077      0.34686  1.0000
  O2          0.68667      0.79735      0.01429  1.0000
  O2          0.09147      0.26794      0.68324  1.0000
  O2          0.80019      0.08052      0.84545  1.0000
  O2          0.27846      0.15898      0.51551  1.0000
  O2          0.87239      0.68632      0.18079  1.0000
  O3          0.28774      0.59729      0.24786  1.0000
  O2          0.34053      0.64304      0.57858  1.0000
  O3          0.30054      0.67288      0.91407  1.0000
  O3          0.67460      0.34908      0.75027  1.0000
  O3          0.60407      0.29529      0.08327  1.0000
  O3          0.66283      0.27624      0.41755  1.0000
  O2          0.36423      0.33028      0.96551  1.0000
  O2          0.62700      0.00493      0.29813  1.0000
  O2          0.94614      0.58949      0.63419  1.0000
  O2          0.60162      0.62367      0.46587  1.0000
  O2          0.33680      0.93767      0.79493  1.0000
  O2          0.01355      0.36436      0.12985  1.0000
  O2          0.30214      0.33265      0.35924  1.0000
  O2          0.01985      0.65891      0.02461  1.0000
  O2          0.62204      0.93015      0.68936  1.0000
  O2          0.66085      0.61109      0.85959  1.0000
  O2          0.94067      0.29261      0.52668  1.0000
  O2          0.34189      0.01910      0.19215  1.0000
  O3          0.75126      0.28497      0.99997  1.0000
  O3          0.67648      0.43729      0.33529  1.0000
  O3          0.51628      0.20326      0.66660  1.0000
  O2          0.20681      0.65318      0.50525  1.0000
  O3          0.28889      0.50687      0.83287  1.0000
  O3          0.44668      0.74896      0.16625  1.0000
  O2          0.26305      0.72750      0.31512  1.0000
  O2          0.45368      0.69793      0.98207  1.0000
  O2          0.22356      0.49936      0.65140  1.0000
  O2          0.69833      0.21366      0.81591  1.0000
  O2          0.51004      0.25633      0.48422  1.0000
  O2          0.73791      0.45297      0.14973  1.0000
  O3          0.76430      0.54345      0.01819  1.0000
  O3          0.41521      0.19006      0.35299  1.0000
  O3          0.75950      0.18650      0.68331  1.0000
  O2          0.19918      0.42348      0.52429  1.0000
  O3          0.54899      0.75459      0.85125  1.0000
  O3          0.20154      0.76345      0.18402  1.0000
  O2          0.49646      0.74964      0.29869  1.0000
  O2          0.24238      0.46379      0.96488  1.0000
  O2          0.20343      0.71387      0.63500  1.0000
  O2          0.46544      0.19278      0.79893  1.0000
  O2          0.72050      0.48813      0.46654  1.0000
  O2          0.75925      0.24055      0.13280  1.0000
  O2          0.22545      0.31829      0.89274  1.0000
  O2          0.63645      0.87463      0.22598  1.0000
  O2          0.07796      0.73024      0.56134  1.0000
  O2          0.73683      0.63051      0.39360  1.0000
  O2          0.32640      0.07196      0.72453  1.0000
  O2          0.87916      0.22189      0.05871  1.0000
  O2          0.30390      0.19038      0.43031  1.0000
  O2          0.87664      0.65822      0.09547  1.0000
  O2          0.76571      0.07679      0.76039  1.0000
  O2          0.65990      0.75867      0.92947  1.0000
  O2          0.07813      0.28728      0.59898  1.0000
  O2          0.19905      0.87185      0.26209  1.0000
  O2          0.56361      0.55570      0.98557  1.0000
  O2          0.40267      0.97966      0.31828  1.0000
  O2          0.96942      0.38530      0.65601  1.0000
  O2          0.39856      0.39783      0.48453  1.0000
  O2          0.56155      0.96068      0.81449  1.0000
  O2          0.98967      0.56516      0.15041  1.0000
  O2          0.52808      0.54206      0.33952  1.0000
  O2          0.00504      0.43250      0.00631  1.0000
  O2          0.41339      0.94902      0.67093  1.0000
  O2          0.43524      0.39979      0.84096  1.0000
  O2          0.94819      0.51824      0.50805  1.0000
  O2          0.55193      0.00285      0.17413  1.0000
  O2          0.53819      0.12617      0.24899  1.0000
  O2          0.82445      0.37731      0.58378  1.0000
  O2          0.57133      0.41535      0.91622  1.0000
  O2          0.42335      0.81805      0.74386  1.0000
  O2          0.13235      0.57241      0.08015  1.0000
  O2          0.39622      0.53610      0.41381  1.0000
  F           0.39235      0.83789      0.23639  1.0000
  F           0.08944      0.51300      0.57740  1.0000
  F           0.43254      0.56389      0.90316  1.0000
  F           0.57057      0.10966      0.73562  1.0000
  F           0.84268      0.42934      0.07004  1.0000
  F           0.53044      0.38479      0.40401  1.0000
