data_cif

_audit_creation_method             'generated by GULP'

_symmetry_space_group_name_H-M     'P 1'
_symmetry_Int_Tables_number        1
_symmetry_cell_setting             triclinic

_cell_length_a                       12.0253
_cell_length_b                       12.0250
_cell_length_c                       29.4853
_cell_angle_alpha                   89.1731
_cell_angle_beta                    90.0728
_cell_angle_gamma                  119.9370

loop_
_atom_site_label
_atom_site_fract_x
_atom_site_fract_y
_atom_site_fract_z
_atom_site_occupancy
  Ge          0.69960      0.37570      0.03389  1.0000
  Ge          0.59066      0.30832      0.36744  1.0000
  Ge          0.67104      0.26676      0.70015  1.0000
  Ge          0.26638      0.58721      0.53046  1.0000
  Ge          0.38716      0.65711      0.86362  1.0000
  Si          0.29455      0.67327      0.19463  1.0000
  Ge          0.36147      0.69495      0.29286  1.0000
  Si          0.30562      0.62018      0.96071  1.0000
  Si          0.31099      0.66247      0.62791  1.0000
  Si          0.62977      0.29612      0.79810  1.0000
  Si          0.66040      0.34609      0.46551  1.0000
  Si          0.66803      0.30105      0.13198  1.0000
  Si          0.52201      0.41327      0.96712  1.0000
  Si          0.55640      0.08971      0.30421  1.0000
  Si          0.88776      0.44643      0.63406  1.0000
  Si          0.44099      0.55174      0.46144  1.0000
  Si          0.42629      0.87352      0.79629  1.0000
  Si          0.08603      0.51414      0.12708  1.0000
  Si          0.39313      0.50638      0.35721  1.0000
  Si          0.08713      0.57222      0.02419  1.0000
  Si          0.47908      0.87594      0.69280  1.0000
  Si          0.58262      0.46190      0.86365  1.0000
  Si          0.87534      0.39211      0.53062  1.0000
  Si          0.50506      0.09054      0.20070  1.0000
  Si          0.29841      0.38603      0.84316  1.0000
  Si          0.57802      0.88011      0.18429  1.0000
  Si          0.08330      0.67739      0.50975  1.0000
  Si          0.67976      0.57863      0.34299  1.0000
  Si          0.40219      0.08606      0.67552  1.0000
  Si          0.87972      0.28652      0.00852  1.0000
  Si          0.37592      0.26726      0.47466  1.0000
  Si          0.87383      0.58546      0.14211  1.0000
  Si          0.70984      0.09090      0.80804  1.0000
  Si          0.58796      0.69796      0.97500  1.0000
  Si          0.10593      0.37924      0.64240  1.0000
  Si          0.26950      0.87348      0.31658  1.0000
  Si          0.24326      0.33802      0.94634  1.0000
  Si          0.64059      0.89018      0.28663  1.0000
  Si          0.09118      0.72587      0.61287  1.0000
  Si          0.72223      0.62729      0.44605  1.0000
  Si          0.34984      0.07830      0.77880  1.0000
  Si          0.88365      0.23423      0.11200  1.0000
  Si          0.31128      0.22160      0.37235  1.0000
  Si          0.88777      0.65662      0.03950  1.0000
  Si          0.76296      0.07724      0.70555  1.0000
  Si          0.66680      0.74708      0.87302  1.0000
  Si          0.07640      0.30733      0.54039  1.0000
  Si          0.22400      0.88554      0.21327  1.0000
  Si          0.96662      0.11871      0.96122  1.0000
  Si          0.85809      0.83401      0.29414  1.0000
  Si          0.14729      0.00082      0.62776  1.0000
  Si          0.99526      0.84775      0.46191  1.0000
  Si          0.12990      0.13288      0.79451  1.0000
  Si          0.82598      0.95701      0.12969  1.0000
  Si          0.09072      0.94978      0.36229  1.0000
  Si          0.83276      0.87722      0.02754  1.0000
  Si          0.03661      0.12838      0.69344  1.0000
  Si          0.88902      0.02068      0.86038  1.0000
  Si          0.12655      0.08534      0.52711  1.0000
  Si          0.94923      0.83351      0.19326  1.0000
  O2          0.91897      0.00180      0.99678  1.0000
  O2          0.98062      0.90385      0.32538  1.0000
  O2          0.07528      0.04542      0.66229  1.0000
  O2          0.04068      0.96394      0.49630  1.0000
  O2          0.01208      0.05958      0.82923  1.0000
  O2          0.91370      0.91689      0.15901  1.0000
  O3          0.32022      0.55564      0.32597  1.0000
  O2          0.42534      0.74707      0.66331  1.0000
  O2          0.21828      0.64945      0.99522  1.0000
  O2          0.65771      0.40441      0.83574  1.0000
  O2          0.55860      0.21929      0.16969  1.0000
  O2          0.74217      0.31731      0.50313  1.0000
  O3          0.56236      0.33762      0.00023  1.0000
  O3          0.77188      0.40613      0.66696  1.0000
  O3          0.63097      0.20962      0.33437  1.0000
  O3          0.39712      0.62584      0.49316  1.0000
  O2          0.21357      0.56494      0.15674  1.0000
  O3          0.34960      0.75350      0.82770  1.0000
  O2          0.11879      0.21212      0.96763  1.0000
  O2          0.77890      0.90773      0.30119  1.0000
  O2          0.08941      0.84854      0.63438  1.0000
  O2          0.84277      0.75409      0.46748  1.0000
  O2          0.22150      0.07130      0.79971  1.0000
  O2          0.88632      0.11064      0.13325  1.0000
  O2          0.17307      0.10310      0.35686  1.0000
  O2          0.90310      0.79353      0.02397  1.0000
  O2          0.88317      0.06146      0.68931  1.0000
  O2          0.80521      0.86673      0.85763  1.0000
  O2          0.05649      0.16947      0.52493  1.0000
  O2          0.10247      0.89003      0.19097  1.0000
  O2          0.90550      0.84698      0.24254  1.0000
  O2          0.12426      0.03438      0.57757  1.0000
  O2          0.93596      0.06364      0.91119  1.0000
  O2          0.07534      0.11715      0.74445  1.0000
  O2          0.83048      0.91996      0.07832  1.0000
  O2          0.02796      0.90686      0.41165  1.0000
  O2          0.89489      0.19893      0.97065  1.0000
  O2          0.77184      0.68374      0.30522  1.0000
  O2          0.29873      0.07267      0.63779  1.0000
  O2          0.06583      0.76668      0.47211  1.0000
  O2          0.21181      0.28288      0.80554  1.0000
  O2          0.67783      0.88662      0.14564  1.0000
  O2          0.17855      0.88584      0.35399  1.0000
  O2          0.68439      0.79583      0.01271  1.0000
  O2          0.10640      0.27923      0.68019  1.0000
  O2          0.80636      0.08734      0.84595  1.0000
  O2          0.27523      0.16872      0.51239  1.0000
  O2          0.87786      0.68323      0.18013  1.0000
  O3          0.28770      0.60463      0.24117  1.0000
  O3          0.36749      0.66744      0.57900  1.0000
  O3          0.30303      0.67419      0.91182  1.0000
  O3          0.68459      0.36010      0.75001  1.0000
  O3          0.60538      0.29675      0.08431  1.0000
  O3          0.66831      0.29088      0.41791  1.0000
  O2          0.36556      0.33205      0.96497  1.0000
  O2          0.64339      0.02011      0.30169  1.0000
  O2          0.96334      0.60285      0.63164  1.0000
  O2          0.59760      0.63170      0.46226  1.0000
  O2          0.34444      0.94818      0.79531  1.0000
  O2          0.01325      0.35878      0.12921  1.0000
  O2          0.30872      0.34974      0.35666  1.0000
  O2          0.01841      0.65890      0.02245  1.0000
  O2          0.63443      0.94691      0.68957  1.0000
  O2          0.66894      0.61711      0.85910  1.0000
  O2          0.94489      0.30669      0.52603  1.0000
  O2          0.35020      0.01566      0.19576  1.0000
  O3          0.74761      0.28165      0.00069  1.0000
  O3          0.68644      0.45233      0.33434  1.0000
  O3          0.52970      0.21752      0.66628  1.0000
  O3          0.21239      0.67960      0.49817  1.0000
  O3          0.29675      0.51370      0.83143  1.0000
  O2          0.44230      0.75201      0.17440  1.0000
  O3          0.26113      0.73903      0.32387  1.0000
  O2          0.45320      0.69703      0.98036  1.0000
  O2          0.23983      0.51338      0.64759  1.0000
  O2          0.70700      0.22270      0.81579  1.0000
  O2          0.51070      0.27066      0.48379  1.0000
  O2          0.74360      0.44963      0.15013  1.0000
  O3          0.76316      0.54366      0.01824  1.0000
  O3          0.42422      0.20893      0.35048  1.0000
  O3          0.77414      0.20278      0.68402  1.0000
  O3          0.19941      0.41899      0.51669  1.0000
  O3          0.55585      0.75859      0.84910  1.0000
  O2          0.22606      0.76191      0.19399  1.0000
  O3          0.52833      0.76378      0.30870  1.0000
  O2          0.24285      0.46419      0.96387  1.0000
  O2          0.21797      0.72537      0.63028  1.0000
  O2          0.47384      0.20204      0.79896  1.0000
  O2          0.72301      0.50209      0.46584  1.0000
  O2          0.75971      0.23625      0.13129  1.0000
  O2          0.22982      0.32336      0.89198  1.0000
  O2          0.64287      0.87610      0.23125  1.0000
  O2          0.08932      0.74310      0.55852  1.0000
  O2          0.74225      0.64302      0.39167  1.0000
  O2          0.33794      0.08551      0.72445  1.0000
  O2          0.88437      0.22329      0.05756  1.0000
  O2          0.30943      0.20209      0.42748  1.0000
  O2          0.87777      0.65566      0.09476  1.0000
  O2          0.77512      0.08720      0.76083  1.0000
  O2          0.66250      0.76103      0.92797  1.0000
  O2          0.09366      0.30733      0.59542  1.0000
  O2          0.20926      0.88310      0.26746  1.0000
  O2          0.56436      0.55640      0.98455  1.0000
  O2          0.41483      0.98903      0.32399  1.0000
  O2          0.98833      0.40284      0.65196  1.0000
  O2          0.39416      0.40739      0.48049  1.0000
  O2          0.56855      0.97093      0.81553  1.0000
  O2          0.99588      0.56516      0.14785  1.0000
  O2          0.53571      0.55414      0.33662  1.0000
  O2          0.99965      0.43279      0.00218  1.0000
  O2          0.42469      0.96367      0.67119  1.0000
  O2          0.44313      0.40731      0.84070  1.0000
  O2          0.95957      0.53296      0.50746  1.0000
  O2          0.56177      0.00515      0.17978  1.0000
  O2          0.54584      0.13207      0.25193  1.0000
  O2          0.84002      0.39527      0.58303  1.0000
  O2          0.57616      0.41944      0.91604  1.0000
  O2          0.43457      0.83280      0.74463  1.0000
  O2          0.12857      0.56313      0.07560  1.0000
  O2          0.39739      0.55037      0.40932  1.0000
  F           0.41371      0.84027      0.25623  1.0000
  F           0.12758      0.53573      0.56884  1.0000
  F           0.43680      0.56777      0.90208  1.0000
  F           0.58130      0.12209      0.73582  1.0000
  F           0.84428      0.42844      0.06866  1.0000
  F           0.53656      0.39734      0.40274  1.0000
