data_cif

_audit_creation_method             'generated by GULP'

_symmetry_space_group_name_H-M     'P 1'
_symmetry_Int_Tables_number        1
_symmetry_cell_setting             triclinic

_cell_length_a                       12.0230
_cell_length_b                       12.0459
_cell_length_c                       29.5093
_cell_angle_alpha                   90.5083
_cell_angle_beta                    89.1771
_cell_angle_gamma                  120.1145

loop_
_atom_site_label
_atom_site_fract_x
_atom_site_fract_y
_atom_site_fract_z
_atom_site_occupancy
  Ge          0.69960      0.37570      0.03389  1.0000
  Ge          0.57697      0.29566      0.36462  1.0000
  Ge          0.64945      0.26088      0.69915  1.0000
  Ge          0.25070      0.57707      0.52957  1.0000
  Si          0.36955      0.66621      0.85752  1.0000
  Ge          0.30351      0.70178      0.19599  1.0000
  Si          0.33283      0.65504      0.29322  1.0000
  Si          0.31021      0.61180      0.95976  1.0000
  Si          0.29008      0.65519      0.62704  1.0000
  Si          0.61193      0.30271      0.79732  1.0000
  Si          0.64795      0.33481      0.46228  1.0000
  Si          0.67071      0.30638      0.13186  1.0000
  Si          0.52320      0.40424      0.96692  1.0000
  Si          0.54042      0.07826      0.29958  1.0000
  Si          0.86529      0.43636      0.63108  1.0000
  Si          0.42755      0.53821      0.46163  1.0000
  Si          0.40688      0.88065      0.79494  1.0000
  Si          0.09494      0.52688      0.12685  1.0000
  Si          0.37785      0.48674      0.35817  1.0000
  Si          0.09221      0.57432      0.02338  1.0000
  Si          0.45718      0.87200      0.69181  1.0000
  Ge          0.55822      0.46570      0.86725  1.0000
  Si          0.86060      0.38033      0.52749  1.0000
  Si          0.49875      0.09103      0.19621  1.0000
  Si          0.28917      0.38408      0.84019  1.0000
  Si          0.57679      0.88469      0.17508  1.0000
  Si          0.06861      0.66539      0.50771  1.0000
  Si          0.66499      0.56465      0.34022  1.0000
  Si          0.37978      0.07920      0.67492  1.0000
  Si          0.88134      0.28804      0.00839  1.0000
  Si          0.36251      0.25449      0.47254  1.0000
  Si          0.87530      0.59165      0.13959  1.0000
  Si          0.69086      0.09579      0.80685  1.0000
  Si          0.59038      0.69082      0.97550  1.0000
  Si          0.08483      0.37176      0.63977  1.0000
  Si          0.25490      0.85996      0.30760  1.0000
  Si          0.24483      0.32959      0.94347  1.0000
  Si          0.61665      0.87574      0.27812  1.0000
  Si          0.06972      0.71601      0.61086  1.0000
  Si          0.70905      0.61482      0.44343  1.0000
  Si          0.32921      0.08152      0.77852  1.0000
  Si          0.88978      0.24518      0.11134  1.0000
  Si          0.29538      0.20264      0.37023  1.0000
  Si          0.89090      0.65727      0.03712  1.0000
  Si          0.74198      0.07271      0.70472  1.0000
  Si          0.65563      0.74434      0.87314  1.0000
  Si          0.06147      0.29655      0.53772  1.0000
  Si          0.21259      0.89061      0.20565  1.0000
  Si          0.96367      0.11706      0.95784  1.0000
  Si          0.83512      0.81938      0.29180  1.0000
  Si          0.12644      0.99188      0.62533  1.0000
  Si          0.98390      0.83398      0.45879  1.0000
  Si          0.10826      0.13847      0.79151  1.0000
  Si          0.83319      0.97010      0.12517  1.0000
  Si          0.07271      0.92865      0.35780  1.0000
  Si          0.83836      0.87820      0.02427  1.0000
  Si          0.01581      0.12355      0.69049  1.0000
  Si          0.86797      0.02763      0.85735  1.0000
  Si          0.11268      0.07404      0.52448  1.0000
  Si          0.94046      0.84031      0.19114  1.0000
  O2          0.91556      0.99366      0.98941  1.0000
  O2          0.95425      0.89154      0.32509  1.0000
  O2          0.05025      0.03827      0.65784  1.0000
  O2          0.02891      0.95359      0.49230  1.0000
  O2          0.98363      0.05869      0.82276  1.0000
  O2          0.90617      0.92267      0.15777  1.0000
  O2          0.30258      0.54053      0.32855  1.0000
  O2          0.40228      0.74005      0.66324  1.0000
  O2          0.22021      0.64612      0.99111  1.0000
  O3          0.64347      0.40927      0.83337  1.0000
  O2          0.55981      0.22590      0.16946  1.0000
  O2          0.72858      0.30558      0.49918  1.0000
  O3          0.55732      0.33387      0.00397  1.0000
  O3          0.74785      0.39523      0.66316  1.0000
  O3          0.61616      0.19487      0.33171  1.0000
  O3          0.38513      0.61441      0.49341  1.0000
  O3          0.21301      0.57138      0.15805  1.0000
  O2          0.33335      0.75520      0.82709  1.0000
  O2          0.11684      0.20604      0.96389  1.0000
  O2          0.74114      0.87733      0.29939  1.0000
  O2          0.06712      0.83971      0.63192  1.0000
  O2          0.83065      0.74219      0.46448  1.0000
  O2          0.20353      0.08187      0.79919  1.0000
  O2          0.89583      0.12310      0.13145  1.0000
  O2          0.15944      0.08221      0.35400  1.0000
  O2          0.90780      0.79370      0.02089  1.0000
  O2          0.86186      0.05538      0.68829  1.0000
  O2          0.77437      0.87604      0.85424  1.0000
  O2          0.04346      0.15864      0.52232  1.0000
  O2          0.09493      0.91100      0.19009  1.0000
  O2          0.88757      0.84312      0.24079  1.0000
  O2          0.10889      0.02272      0.57440  1.0000
  O2          0.92774      0.07069      0.90664  1.0000
  O2          0.06408      0.11915      0.74011  1.0000
  O2          0.85007      0.93616      0.07399  1.0000
  O2          0.01928      0.88656      0.40819  1.0000
  O2          0.89466      0.19730      0.97076  1.0000
  O2          0.75543      0.66807      0.30216  1.0000
  O2          0.27654      0.06446      0.63730  1.0000
  O2          0.05310      0.75321      0.46999  1.0000
  O2          0.18035      0.28940      0.80409  1.0000
  O2          0.68276      0.90169      0.13720  1.0000
  O2          0.15427      0.85909      0.34515  1.0000
  O2          0.68677      0.79115      0.01312  1.0000
  O2          0.08422      0.27344      0.67717  1.0000
  O2          0.78769      0.09774      0.84525  1.0000
  O2          0.26245      0.15721      0.51026  1.0000
  O2          0.87747      0.69129      0.17733  1.0000
  O3          0.28181      0.59971      0.24411  1.0000
  O3          0.34944      0.65983      0.57830  1.0000
  O2          0.31441      0.66170      0.90850  1.0000
  O3          0.66337      0.35717      0.74728  1.0000
  O3          0.60726      0.29556      0.08431  1.0000
  O3          0.65704      0.28151      0.41395  1.0000
  O2          0.36441      0.32028      0.96198  1.0000
  O2          0.62171      0.00320      0.29696  1.0000
  O2          0.94090      0.59311      0.62885  1.0000
  O2          0.58436      0.62017      0.45991  1.0000
  O2          0.32109      0.94980      0.79620  1.0000
  O2          0.02070      0.37031      0.12619  1.0000
  O2          0.29357      0.33148      0.35444  1.0000
  O2          0.02291      0.65978      0.02047  1.0000
  O2          0.61245      0.94164      0.68847  1.0000
  O3          0.67341      0.63145      0.85458  1.0000
  O2          0.93011      0.29476      0.52276  1.0000
  O2          0.34388      0.02181      0.19082  1.0000
  O3          0.75036      0.28393      0.99962  1.0000
  O3          0.66868      0.43731      0.33056  1.0000
  O3          0.50735      0.20958      0.66536  1.0000
  O3          0.19906      0.66830      0.49682  1.0000
  O2          0.29679      0.52359      0.83574  1.0000
  O3          0.44965      0.75570      0.16348  1.0000
  O2          0.25429      0.72564      0.31240  1.0000
  O2          0.45423      0.68888      0.97998  1.0000
  O2          0.21855      0.50643      0.64574  1.0000
  O2          0.68907      0.22701      0.81247  1.0000
  O2          0.49708      0.25696      0.47985  1.0000
  O2          0.74335      0.45729      0.14854  1.0000
  O3          0.76652      0.54268      0.01623  1.0000
  O3          0.40996      0.19233      0.34833  1.0000
  O3          0.75455      0.19749      0.68336  1.0000
  O3          0.18545      0.40876      0.51465  1.0000
  O2          0.52404      0.73618      0.85478  1.0000
  O3          0.20107      0.76735      0.18215  1.0000
  O2          0.48883      0.74852      0.29522  1.0000
  O2          0.24920      0.45868      0.96179  1.0000
  O2          0.19603      0.71676      0.62884  1.0000
  O2          0.45559      0.20226      0.79782  1.0000
  O2          0.70890      0.49051      0.46320  1.0000
  O2          0.76640      0.24640      0.13273  1.0000
  O2          0.22818      0.31699      0.88923  1.0000
  O2          0.63631      0.87865      0.22374  1.0000
  O2          0.07114      0.73153      0.55647  1.0000
  O2          0.72871      0.62812      0.38901  1.0000
  O2          0.31519      0.07869      0.72413  1.0000
  O2          0.88193      0.22527      0.05707  1.0000
  O2          0.29339      0.18974      0.42534  1.0000
  O2          0.87914      0.65995      0.09232  1.0000
  O2          0.75357      0.08260      0.75988  1.0000
  O2          0.66184      0.75504      0.92822  1.0000
  O2          0.07593      0.29894      0.59268  1.0000
  O2          0.19603      0.87365      0.26057  1.0000
  O2          0.56582      0.55013      0.98477  1.0000
  O2          0.39632      0.97666      0.31751  1.0000
  O2          0.96656      0.39483      0.64878  1.0000
  O2          0.38367      0.39544      0.48015  1.0000
  O2          0.54835      0.97338      0.81487  1.0000
  O2          0.99586      0.57130      0.14564  1.0000
  O2          0.52011      0.54265      0.33619  1.0000
  O2          0.00542      0.43211      0.00265  1.0000
  O2          0.40124      0.95596      0.66975  1.0000
  O3          0.42031      0.39037      0.82956  1.0000
  O2          0.94566      0.52029      0.50447  1.0000
  O2          0.55618      0.00833      0.17252  1.0000
  O2          0.53591      0.12501      0.24847  1.0000
  O2          0.82185      0.38450      0.57951  1.0000
  O3          0.58308      0.40348      0.91829  1.0000
  O2          0.41108      0.83285      0.74401  1.0000
  O2          0.13734      0.57481      0.07454  1.0000
  O2          0.37840      0.53044      0.40989  1.0000
  F           0.39063      0.84046      0.23394  1.0000
  F           0.10944      0.52517      0.56676  1.0000
  F           0.46353      0.52178      0.90064  1.0000
  F           0.55856      0.11532      0.73386  1.0000
  F           0.84560      0.43220      0.06797  1.0000
  F           0.52150      0.38455      0.40015  1.0000
