data_cif

_audit_creation_method             'generated by GULP'

_symmetry_space_group_name_H-M     'P 1'
_symmetry_Int_Tables_number        1
_symmetry_cell_setting             triclinic

_cell_length_a                       12.0313
_cell_length_b                       12.0313
_cell_length_c                       29.4877
_cell_angle_alpha                   90.0000
_cell_angle_beta                    90.0000
_cell_angle_gamma                  120.0000

loop_
_atom_site_label
_atom_site_fract_x
_atom_site_fract_y
_atom_site_fract_z
_atom_site_occupancy
  Ge          0.69960      0.37570      0.03389  1.0000
  Ge          0.57694      0.29157      0.36722  1.0000
  Ge          0.66107      0.25304      0.70056  1.0000
  Ge          0.25881      0.57117      0.53389  1.0000
  Ge          0.38147      0.65530      0.86722  1.0000
  Ge          0.29734      0.69383      0.20056  1.0000
  Si          0.33354      0.65381      0.29818  1.0000
  Si          0.30524      0.61909      0.96485  1.0000
  Si          0.29883      0.64740      0.63151  1.0000
  Si          0.62486      0.29306      0.79818  1.0000
  Si          0.65317      0.32778      0.46485  1.0000
  Si          0.65958      0.29947      0.13151  1.0000
  Si          0.52353      0.41380      0.96681  1.0000
  Si          0.53884      0.07740      0.30014  1.0000
  Si          0.87523      0.42910      0.63348  1.0000
  Si          0.43487      0.53307      0.46681  1.0000
  Si          0.41956      0.86946      0.80014  1.0000
  Si          0.08317      0.51777      0.13348  1.0000
  Si          0.37980      0.48463      0.36328  1.0000
  Si          0.08980      0.57284      0.02995  1.0000
  Si          0.46800      0.86283      0.69662  1.0000
  Si          0.57860      0.46224      0.86328  1.0000
  Si          0.86860      0.37403      0.52995  1.0000
  Si          0.49040      0.08404      0.19662  1.0000
  Si          0.29325      0.38477      0.84429  1.0000
  Si          0.56786      0.87615      0.17762  1.0000
  Si          0.07649      0.65939      0.51096  1.0000
  Si          0.66515      0.56210      0.34429  1.0000
  Si          0.39054      0.07072      0.67762  1.0000
  Si          0.88191      0.28748      0.01096  1.0000
  Si          0.36916      0.24861      0.47671  1.0000
  Si          0.86442      0.58348      0.14338  1.0000
  Si          0.70403      0.08822      0.81005  1.0000
  Si          0.58924      0.69826      0.97671  1.0000
  Si          0.09399      0.36339      0.64338  1.0000
  Si          0.25438      0.85865      0.31005  1.0000
  Si          0.24374      0.33762      0.94750  1.0000
  Si          0.61502      0.87379      0.28084  1.0000
  Si          0.07885      0.70890      0.61417  1.0000
  Si          0.71467      0.60925      0.44750  1.0000
  Si          0.34339      0.07308      0.78084  1.0000
  Si          0.87956      0.23797      0.11417  1.0000
  Si          0.29642      0.19980      0.37443  1.0000
  Si          0.88835      0.65622      0.04110  1.0000
  Si          0.75283      0.06429      0.70777  1.0000
  Si          0.66198      0.74707      0.87443  1.0000
  Si          0.07005      0.29065      0.54110  1.0000
  Si          0.20557      0.88258      0.20777  1.0000
  Si          0.96835      0.11867      0.96226  1.0000
  Si          0.83397      0.81735      0.29559  1.0000
  Si          0.13529      0.98429      0.62893  1.0000
  Si          0.99005      0.82820      0.46226  1.0000
  Si          0.12444      0.12952      0.79559  1.0000
  Si          0.82311      0.96258      0.12893  1.0000
  Si          0.07375      0.92652      0.36134  1.0000
  Si          0.83774      0.87888      0.02801  1.0000
  Si          0.02612      0.11490      0.69467  1.0000
  Si          0.88465      0.02035      0.86134  1.0000
  Si          0.12067      0.06799      0.52801  1.0000
  Si          0.93229      0.83197      0.19467  1.0000
  O2          0.92174      0.99915      0.99579  1.0000
  O2          0.95348      0.89025      0.32912  1.0000
  O2          0.06239      0.03090      0.66246  1.0000
  O2          0.03667      0.94772      0.49579  1.0000
  O2          0.00492      0.05662      0.82912  1.0000
  O2          0.89602      0.91597      0.16246  1.0000
  O2          0.30447      0.54115      0.33450  1.0000
  O2          0.41149      0.73099      0.66783  1.0000
  O2          0.22165      0.64816      0.00117  1.0000
  O2          0.65393      0.40572      0.83450  1.0000
  O2          0.54692      0.21588      0.16783  1.0000
  O2          0.73676      0.29871      0.50117  1.0000
  O3          0.56441      0.33769      0.99880  1.0000
  O3          0.75825      0.38823      0.66547  1.0000
  O3          0.61495      0.19438      0.33214  1.0000
  O3          0.39400      0.60918      0.49880  1.0000
  O3          0.20015      0.55864      0.16547  1.0000
  O3          0.34346      0.75248      0.83214  1.0000
  O2          0.12085      0.21117      0.96854  1.0000
  O2          0.74147      0.87735      0.30187  1.0000
  O2          0.07529      0.83179      0.63521  1.0000
  O2          0.83756      0.73570      0.46854  1.0000
  O2          0.21694      0.06952      0.80187  1.0000
  O2          0.88312      0.11508      0.13521  1.0000
  O2          0.15924      0.08036      0.35849  1.0000
  O2          0.90609      0.79340      0.02515  1.0000
  O2          0.87227      0.04654      0.69182  1.0000
  O2          0.79916      0.86650      0.85849  1.0000
  O2          0.05231      0.15347      0.52515  1.0000
  O2          0.08613      0.90033      0.19182  1.0000
  O2          0.88663      0.83771      0.24494  1.0000
  O2          0.11493      0.01658      0.57827  1.0000
  O2          0.93605      0.06601      0.91160  1.0000
  O2          0.07178      0.10916      0.74494  1.0000
  O2          0.84347      0.93028      0.07827  1.0000
  O2          0.02235      0.88086      0.41160  1.0000
  O2          0.89786      0.19902      0.97313  1.0000
  O2          0.75362      0.66651      0.30646  1.0000
  O2          0.28613      0.05478      0.63979  1.0000
  O2          0.06054      0.74785      0.47313  1.0000
  O2          0.20479      0.28036      0.80646  1.0000
  O2          0.67228      0.89210      0.13979  1.0000
  O2          0.15607      0.85907      0.34770  1.0000
  O2          0.68796      0.79656      0.01436  1.0000
  O2          0.09357      0.26467      0.68103  1.0000
  O2          0.80233      0.08780      0.84770  1.0000
  O2          0.27044      0.15031      0.51436  1.0000
  O2          0.86484      0.68220      0.18103  1.0000
  O3          0.28050      0.59526      0.24952  1.0000
  O3          0.35738      0.65291      0.58286  1.0000
  O3          0.29973      0.67214      0.91619  1.0000
  O3          0.67790      0.35161      0.74953  1.0000
  O3          0.60103      0.29396      0.08286  1.0000
  O3          0.65868      0.27473      0.41619  1.0000
  O2          0.36706      0.33225      0.96489  1.0000
  O2          0.62039      0.00248      0.29822  1.0000
  O2          0.95016      0.58558      0.63155  1.0000
  O2          0.59135      0.61462      0.46489  1.0000
  O2          0.33802      0.94439      0.79822  1.0000
  O2          0.00824      0.36129      0.13155  1.0000
  O2          0.29475      0.32952      0.35904  1.0000
  O2          0.01974      0.65789      0.02571  1.0000
  O2          0.62312      0.93289      0.69238  1.0000
  O2          0.66366      0.61735      0.85904  1.0000
  O2          0.93866      0.28898      0.52571  1.0000
  O2          0.33529      0.01398      0.19238  1.0000
  O3          0.75183      0.28474      0.00052  1.0000
  O3          0.66790      0.43476      0.33385  1.0000
  O3          0.51787      0.20081      0.66719  1.0000
  O3          0.20657      0.66213      0.50052  1.0000
  O3          0.29050      0.51210      0.83385  1.0000
  O3          0.44053      0.74607      0.16718  1.0000
  O2          0.25576      0.72548      0.31644  1.0000
  O2          0.45469      0.69687      0.98311  1.0000
  O2          0.22716      0.49795      0.64978  1.0000
  O2          0.70264      0.22139      0.81644  1.0000
  O2          0.50372      0.25000      0.48311  1.0000
  O2          0.73125      0.44892      0.14978  1.0000
  O3          0.76468      0.54356      0.01854  1.0000
  O3          0.40908      0.18879      0.35187  1.0000
  O3          0.76385      0.18796      0.68521  1.0000
  O3          0.19372      0.40331      0.51854  1.0000
  O3          0.54933      0.75808      0.85187  1.0000
  O3          0.19456      0.75891      0.18521  1.0000
  O2          0.48934      0.74793      0.29958  1.0000
  O2          0.24356      0.46330      0.96624  1.0000
  O2          0.20471      0.70908      0.63291  1.0000
  O2          0.46907      0.19894      0.79958  1.0000
  O2          0.71485      0.48357      0.46624  1.0000
  O2          0.75370      0.23779      0.13291  1.0000
  O2          0.22726      0.32249      0.89307  1.0000
  O2          0.63014      0.87243      0.22640  1.0000
  O2          0.08020      0.72537      0.55974  1.0000
  O2          0.73114      0.62438      0.39307  1.0000
  O2          0.32826      0.07443      0.72640  1.0000
  O2          0.87820      0.22150      0.05974  1.0000
  O2          0.29730      0.18584      0.42951  1.0000
  O2          0.87352      0.65534      0.09618  1.0000
  O2          0.76680      0.07913      0.76284  1.0000
  O2          0.66110      0.76103      0.92951  1.0000
  O2          0.08489      0.29153      0.59618  1.0000
  O2          0.19161      0.86774      0.26284  1.0000
  O2          0.56644      0.55696      0.98510  1.0000
  O2          0.39568      0.97715      0.31844  1.0000
  O2          0.97549      0.38620      0.65177  1.0000
  O2          0.39196      0.38991      0.48510  1.0000
  O2          0.56273      0.96972      0.81844  1.0000
  O2          0.98291      0.56067      0.15177  1.0000
  O2          0.52040      0.54054      0.34073  1.0000
  O2          0.00511      0.43224      0.00740  1.0000
  O2          0.41209      0.94752      0.67406  1.0000
  O2          0.43801      0.40633      0.84073  1.0000
  O2          0.95329      0.51463      0.50740  1.0000
  O2          0.54631      0.99935      0.17406  1.0000
  O2          0.53227      0.12244      0.24860  1.0000
  O2          0.83019      0.37749      0.58193  1.0000
  O2          0.57514      0.42037      0.91526  1.0000
  O2          0.42614      0.82443      0.74860  1.0000
  O2          0.12821      0.56938      0.08193  1.0000
  O2          0.38326      0.52650      0.41526  1.0000
  F           0.38595      0.83509      0.23710  1.0000
  F           0.11755      0.51853      0.57044  1.0000
  F           0.43411      0.56669      0.90377  1.0000
  F           0.57246      0.11178      0.73710  1.0000
  F           0.84086      0.42834      0.07044  1.0000
  F           0.52430      0.38018      0.40377  1.0000
