data_cif

_audit_creation_method             'generated by GULP'

_symmetry_space_group_name_H-M     'P 1'
_symmetry_Int_Tables_number        1
_symmetry_cell_setting             triclinic

_cell_length_a                       12.0454
_cell_length_b                       12.0420
_cell_length_c                       29.5261
_cell_angle_alpha                   90.8546
_cell_angle_beta                    89.3062
_cell_angle_gamma                  120.0935

loop_
_atom_site_label
_atom_site_fract_x
_atom_site_fract_y
_atom_site_fract_z
_atom_site_occupancy
  Ge          0.69960      0.37570      0.03389  1.0000
  Ge          0.64414      0.35312      0.36911  1.0000
  Si          0.70101      0.33547      0.69991  1.0000
  Si          0.33755      0.65354      0.52900  1.0000
  Si          0.37753      0.68912      0.86271  1.0000
  Si          0.34624      0.70752      0.19611  1.0000
  Ge          0.41453      0.73648      0.29417  1.0000
  Ge          0.33762      0.61738      0.96053  1.0000
  Ge          0.30668      0.69701      0.62703  1.0000
  Ge          0.62022      0.29191      0.79686  1.0000
  Si          0.71082      0.39947      0.46715  1.0000
  Ge          0.73698      0.34019      0.13216  1.0000
  Si          0.52785      0.41724      0.96669  1.0000
  Si          0.61215      0.13100      0.30613  1.0000
  Si          0.91990      0.50631      0.63690  1.0000
  Si          0.49989      0.60534      0.46034  1.0000
  Si          0.42425      0.90184      0.79728  1.0000
  Si          0.13339      0.53926      0.13002  1.0000
  Si          0.44895      0.55198      0.35695  1.0000
  Si          0.12143      0.58173      0.02690  1.0000
  Si          0.48384      0.91247      0.69391  1.0000
  Si          0.58054      0.46989      0.86332  1.0000
  Si          0.92025      0.44894      0.53414  1.0000
  Si          0.56522      0.13123      0.20209  1.0000
  Si          0.29713      0.40429      0.85162  1.0000
  Si          0.63128      0.91344      0.18771  1.0000
  Si          0.13192      0.73223      0.51895  1.0000
  Si          0.73595      0.62293      0.34491  1.0000
  Si          0.41833      0.13118      0.68588  1.0000
  Si          0.90349      0.29452      0.01805  1.0000
  Si          0.42729      0.32245      0.47697  1.0000
  Si          0.92481      0.61607      0.15065  1.0000
  Si          0.70897      0.10999      0.81750  1.0000
  Si          0.60739      0.70440      0.98470  1.0000
  Si          0.12685      0.42778      0.65241  1.0000
  Si          0.32539      0.91685      0.31931  1.0000
  Si          0.24434      0.33649      0.95370  1.0000
  Si          0.69413      0.92902      0.29002  1.0000
  Si          0.11879      0.78986      0.62147  1.0000
  Si          0.78106      0.68160      0.44810  1.0000
  Si          0.34029      0.10267      0.78778  1.0000
  Si          0.93186      0.25370      0.12007  1.0000
  Si          0.36497      0.26864      0.37472  1.0000
  Si          0.92051      0.66189      0.04783  1.0000
  Si          0.76304      0.11595      0.71440  1.0000
  Si          0.65759      0.75060      0.88143  1.0000
  Si          0.12213      0.37116      0.54903  1.0000
  Si          0.28341      0.92546      0.21636  1.0000
  Si          0.97302      0.11364      0.96668  1.0000
  Si          0.91438      0.87735      0.29894  1.0000
  Si          0.17321      0.06511      0.63336  1.0000
  Si          0.05583      0.90439      0.46794  1.0000
  Si          0.11802      0.15406      0.80003  1.0000
  Si          0.87989      0.98135      0.13441  1.0000
  Si          0.14737      0.99464      0.36720  1.0000
  Si          0.86242      0.87814      0.03340  1.0000
  Si          0.03940      0.17281      0.69940  1.0000
  Si          0.87727      0.02497      0.86591  1.0000
  Si          0.17939      0.15149      0.53138  1.0000
  Si          0.01056      0.87336      0.19917  1.0000
  O2          0.93341      0.99448      0.99896  1.0000
  O2          0.02670      0.94189      0.33501  1.0000
  O2          0.08677      0.10344      0.66387  1.0000
  O2          0.09187      0.02380      0.50194  1.0000
  O2          0.99562      0.07070      0.83147  1.0000
  O2          0.96679      0.94478      0.16435  1.0000
  O3          0.37430      0.59679      0.32663  1.0000
  O3          0.44351      0.79635      0.66087  1.0000
  O3          0.23788      0.65618      0.99421  1.0000
  O3          0.65757      0.42678      0.83206  1.0000
  O3          0.61120      0.25120      0.17158  1.0000
  O2          0.79181      0.37220      0.50493  1.0000
  O3          0.57655      0.34044      0.99570  1.0000
  O2          0.78844      0.45206      0.66554  1.0000
  O3          0.68532      0.25334      0.33719  1.0000
  O2          0.44637      0.68062      0.49119  1.0000
  O2          0.26572      0.59799      0.15800  1.0000
  O2          0.34940      0.77000      0.82545  1.0000
  O2          0.12661      0.19881      0.96965  1.0000
  O2          0.83203      0.94787      0.30540  1.0000
  O2          0.10331      0.91123      0.63693  1.0000
  O2          0.90260      0.80774      0.47038  1.0000
  O2          0.20220      0.08456      0.80311  1.0000
  O2          0.94958      0.13552      0.13685  1.0000
  O2          0.22696      0.14738      0.36012  1.0000
  O2          0.92870      0.79136      0.02818  1.0000
  O2          0.88724      0.11434      0.69305  1.0000
  O2          0.78531      0.87204      0.86032  1.0000
  O2          0.11921      0.24478      0.52791  1.0000
  O2          0.16352      0.93305      0.19501  1.0000
  O2          0.97380      0.89715      0.24909  1.0000
  O2          0.17514      0.10967      0.58260  1.0000
  O2          0.93040      0.06089      0.91618  1.0000
  O2          0.06992      0.14783      0.74929  1.0000
  O2          0.87861      0.93402      0.08358  1.0000
  O2          0.09806      0.96061      0.41853  1.0000
  O2          0.90762      0.19785      0.97989  1.0000
  O2          0.82717      0.72571      0.30747  1.0000
  O2          0.32157      0.13235      0.64826  1.0000
  O2          0.12742      0.82585      0.48105  1.0000
  O2          0.20060      0.30400      0.81368  1.0000
  O2          0.73202      0.91587      0.15010  1.0000
  O2          0.23349      0.93011      0.35698  1.0000
  O2          0.71179      0.79374      0.02233  1.0000
  O2          0.11153      0.32474      0.69007  1.0000
  O2          0.79580      0.09356      0.85504  1.0000
  O2          0.32746      0.22942      0.51551  1.0000
  O2          0.94197      0.72221      0.18847  1.0000
  O3          0.33794      0.64293      0.24331  1.0000
  O3          0.40057      0.71216      0.57659  1.0000
  O3          0.32314      0.69731      0.91090  1.0000
  O3          0.70424      0.39249      0.74866  1.0000
  O1          0.63457      0.31900      0.08571  1.0000
  O3          0.71808      0.33767      0.42078  1.0000
  O2          0.37241      0.33517      0.96939  1.0000
  O2          0.69689      0.05925      0.30629  1.0000
  O2          0.98846      0.66156      0.63866  1.0000
  O2          0.65479      0.68561      0.46525  1.0000
  O2          0.33799      0.97064      0.80170  1.0000
  O2          0.06199      0.38457      0.13517  1.0000
  O2          0.36214      0.39545      0.35946  1.0000
  O2          0.04898      0.66526      0.03039  1.0000
  O2          0.64032      0.98764      0.69599  1.0000
  O2          0.66231      0.62634      0.86416  1.0000
  O2          0.99267      0.36622      0.53176  1.0000
  O2          0.40870      0.05400      0.20028  1.0000
  O3          0.76873      0.28709      0.01213  1.0000
  O3          0.74415      0.49681      0.33783  1.0000
  O2          0.55328      0.26465      0.68031  1.0000
  O2          0.26203      0.72654      0.51093  1.0000
  O2          0.30066      0.53921      0.84430  1.0000
  O2          0.49595      0.78308      0.17801  1.0000
  O3          0.31779      0.78334      0.32724  1.0000
  O3          0.47995      0.70856      0.99418  1.0000
  O3          0.25911      0.55500      0.66010  1.0000
  O3          0.71084      0.23936      0.82911  1.0000
  O2          0.56295      0.33039      0.48713  1.0000
  O3          0.79702      0.48852      0.16293  1.0000
  O3          0.79434      0.54202      0.02810  1.0000
  O3          0.47749      0.25480      0.35289  1.0000
  O2          0.76347      0.24219      0.69672  1.0000
  O2          0.24593      0.49714      0.52979  1.0000
  O2          0.53342      0.75121      0.86198  1.0000
  O2          0.28225      0.79959      0.19634  1.0000
  O3          0.58074      0.80303      0.31136  1.0000
  O3          0.23229      0.44993      0.97570  1.0000
  O3          0.24354      0.80169      0.64257  1.0000
  O3          0.45170      0.22486      0.81164  1.0000
  O2          0.77891      0.55643      0.46770  1.0000
  O3          0.80803      0.24270      0.14307  1.0000
  O2          0.23099      0.33503      0.89855  1.0000
  O2          0.69635      0.91288      0.23490  1.0000
  O2          0.12816      0.79839      0.56626  1.0000
  O2          0.79613      0.69312      0.39396  1.0000
  O2          0.34445      0.12059      0.73288  1.0000
  O2          0.91976      0.23755      0.06518  1.0000
  O2          0.36267      0.25306      0.43005  1.0000
  O2          0.91680      0.67529      0.10241  1.0000
  O2          0.77704      0.11549      0.76869  1.0000
  O2          0.67065      0.76823      0.93577  1.0000
  O2          0.12147      0.35980      0.60339  1.0000
  O2          0.26390      0.92088      0.27067  1.0000
  O2          0.58425      0.55956      0.98900  1.0000
  O2          0.46974      0.03530      0.32654  1.0000
  O2          0.00741      0.45462      0.65896  1.0000
  O2          0.44334      0.46351      0.48129  1.0000
  O2          0.56405      0.98695      0.82004  1.0000
  O2          0.04839      0.59574      0.15218  1.0000
  O2          0.59068      0.59311      0.33738  1.0000
  O2          0.01645      0.43933      0.00903  1.0000
  O2          0.44135      0.01295      0.67649  1.0000
  O2          0.43817      0.42514      0.84416  1.0000
  O2          0.01003      0.58978      0.51319  1.0000
  O2          0.61425      0.03613      0.18240  1.0000
  O2          0.60715      0.17119      0.25430  1.0000
  O2          0.87864      0.45570      0.58557  1.0000
  O2          0.57318      0.42139      0.91478  1.0000
  O2          0.43012      0.86506      0.74498  1.0000
  O2          0.16952      0.57576      0.07766  1.0000
  O2          0.45904      0.60525      0.40910  1.0000
  F           0.46900      0.88048      0.25950  1.0000
  F           0.16191      0.60503      0.59238  1.0000
  F           0.42624      0.56245      0.92450  1.0000
  F           0.57003      0.15270      0.75862  1.0000
  F           0.87300      0.42889      0.08961  1.0000
  F           0.59154      0.44627      0.40527  1.0000
