data_cif

_audit_creation_method             'generated by GULP'

_symmetry_space_group_name_H-M     'P 1'
_symmetry_Int_Tables_number        1
_symmetry_cell_setting             triclinic

_cell_length_a                       12.0529
_cell_length_b                       12.0401
_cell_length_c                       29.5461
_cell_angle_alpha                   89.7592
_cell_angle_beta                    89.5133
_cell_angle_gamma                  120.1435

loop_
_atom_site_label
_atom_site_fract_x
_atom_site_fract_y
_atom_site_fract_z
_atom_site_occupancy
  Ge          0.69960      0.37570      0.03389  1.0000
  Ge          0.59401      0.30467      0.37228  1.0000
  Ge          0.66660      0.25352      0.70475  1.0000
  Ge          0.27309      0.57935      0.53993  1.0000
  Ge          0.38316      0.65468      0.87416  1.0000
  Ge          0.31640      0.70252      0.20967  1.0000
  Si          0.35506      0.67001      0.30738  1.0000
  Si          0.30535      0.61677      0.97242  1.0000
  Si          0.30597      0.65111      0.63749  1.0000
  Si          0.62864      0.29387      0.80202  1.0000
  Si          0.66955      0.33559      0.46941  1.0000
  Si          0.68980      0.31153      0.13719  1.0000
  Si          0.51924      0.40926      0.96903  1.0000
  Si          0.56010      0.09360      0.30467  1.0000
  Si          0.88268      0.43082      0.63726  1.0000
  Si          0.45297      0.54187      0.47467  1.0000
  Si          0.42184      0.86967      0.80625  1.0000
  Si          0.11080      0.52535      0.14249  1.0000
  Si          0.39909      0.49846      0.37140  1.0000
  Ge          0.08689      0.56166      0.04193  1.0000
  Si          0.47268      0.86407      0.70277  1.0000
  Si          0.57879      0.46187      0.86610  1.0000
  Si          0.88360      0.38060      0.53391  1.0000
  Si          0.51144      0.09382      0.20130  1.0000
  Si          0.29428      0.38562      0.84896  1.0000
  Si          0.58677      0.88412      0.18506  1.0000
  Si          0.09228      0.66750      0.51581  1.0000
  Si          0.68387      0.57695      0.35068  1.0000
  Si          0.39585      0.07157      0.68299  1.0000
  Si          0.89944      0.29055      0.01577  1.0000
  Si          0.38628      0.25699      0.48310  1.0000
  Si          0.89267      0.59338      0.15126  1.0000
  Si          0.70661      0.08903      0.81490  1.0000
  Si          0.59134      0.69354      0.98173  1.0000
  Si          0.10096      0.36573      0.64795  1.0000
  Si          0.27529      0.87451      0.31627  1.0000
  Si          0.24117      0.33461      0.95215  1.0000
  Si          0.63624      0.88935      0.28799  1.0000
  Si          0.08702      0.71209      0.61892  1.0000
  Si          0.73212      0.61838      0.45367  1.0000
  Si          0.34690      0.07369      0.78605  1.0000
  Si          0.90741      0.24684      0.11938  1.0000
  Si          0.31396      0.21291      0.38117  1.0000
  Si          0.90876      0.66355      0.04888  1.0000
  Si          0.75776      0.06491      0.71297  1.0000
  Si          0.66362      0.74616      0.87951  1.0000
  Si          0.08464      0.29782      0.54574  1.0000
  Si          0.22638      0.89331      0.21396  1.0000
  Si          0.96531      0.11157      0.96639  1.0000
  Si          0.85469      0.83283      0.30090  1.0000
  Si          0.14229      0.98665      0.63412  1.0000
  Si          0.00703      0.83704      0.46754  1.0000
  Si          0.12836      0.13132      0.80015  1.0000
  Si          0.83973      0.96682      0.13382  1.0000
  Si          0.09195      0.94032      0.36695  1.0000
  Si          0.83734      0.87389      0.03309  1.0000
  Si          0.03139      0.11589      0.69955  1.0000
  Si          0.88591      0.01995      0.86538  1.0000
  Si          0.13539      0.07505      0.53334  1.0000
  Si          0.95315      0.84136      0.20009  1.0000
  O2          0.92124      0.98889      0.99837  1.0000
  O2          0.97595      0.90546      0.33318  1.0000
  O2          0.06761      0.03191      0.66739  1.0000
  O2          0.05384      0.95649      0.50065  1.0000
  O2          0.00637      0.05629      0.83295  1.0000
  O2          0.91619      0.91842      0.16469  1.0000
  O2          0.32465      0.55814      0.34437  1.0000
  O2          0.41575      0.73219      0.67440  1.0000
  O3          0.23018      0.64748      0.00866  1.0000
  O2          0.65601      0.40699      0.83768  1.0000
  O2          0.56982      0.22398      0.17057  1.0000
  O2          0.75357      0.30546      0.50474  1.0000
  O3          0.56538      0.33393      0.00064  1.0000
  O3          0.76378      0.38807      0.66882  1.0000
  O3          0.63408      0.21192      0.33568  1.0000
  O3          0.41218      0.61787      0.50659  1.0000
  O3          0.21751      0.56153      0.17867  1.0000
  O3          0.34638      0.75278      0.83847  1.0000
  O2          0.11718      0.20771      0.97311  1.0000
  O2          0.76387      0.89437      0.30802  1.0000
  O2          0.08133      0.83365      0.63986  1.0000
  O2          0.85496      0.74316      0.47492  1.0000
  O2          0.22110      0.07218      0.80700  1.0000
  O2          0.90373      0.11985      0.14013  1.0000
  O2          0.17632      0.09459      0.36548  1.0000
  O2          0.90415      0.78844      0.03192  1.0000
  O2          0.87749      0.04693      0.69747  1.0000
  O2          0.80046      0.86615      0.86279  1.0000
  O2          0.06867      0.16166      0.52974  1.0000
  O2          0.10738      0.91117      0.19782  1.0000
  O2          0.90405      0.85139      0.24949  1.0000
  O2          0.12477      0.02150      0.58356  1.0000
  O2          0.93722      0.06548      0.91529  1.0000
  O2          0.07888      0.11161      0.74937  1.0000
  O2          0.84744      0.93296      0.08221  1.0000
  O2          0.03565      0.88910      0.41656  1.0000
  O2          0.88791      0.18387      0.97947  1.0000
  O2          0.77312      0.68232      0.31272  1.0000
  O2          0.29234      0.05612      0.64536  1.0000
  O2          0.07869      0.75774      0.47798  1.0000
  O2          0.20618      0.28192      0.81130  1.0000
  O2          0.69099      0.89745      0.14759  1.0000
  O2          0.17735      0.87626      0.35382  1.0000
  O2          0.68779      0.78924      0.02010  1.0000
  O2          0.09835      0.26559      0.68544  1.0000
  O2          0.80432      0.08821      0.85227  1.0000
  O2          0.28641      0.15684      0.52059  1.0000
  O2          0.88970      0.69024      0.18878  1.0000
  O3          0.30272      0.60837      0.25958  1.0000
  O3          0.36793      0.65978      0.58915  1.0000
  O3          0.30271      0.66957      0.92264  1.0000
  O3          0.68329      0.35254      0.75333  1.0000
  O3          0.63936      0.31380      0.08749  1.0000
  O3          0.67448      0.28440      0.42049  1.0000
  O2          0.36417      0.32618      0.96905  1.0000
  O2          0.64238      0.01956      0.30371  1.0000
  O2          0.95732      0.58745      0.63561  1.0000
  O2          0.60944      0.62334      0.47211  1.0000
  O2          0.34067      0.94506      0.80413  1.0000
  O2          0.03568      0.36722      0.13795  1.0000
  O2          0.31369      0.34362      0.36619  1.0000
  O3          0.03895      0.67820      0.03059  1.0000
  O2          0.62784      0.93349      0.69819  1.0000
  O2          0.66433      0.61708      0.86256  1.0000
  O2          0.95408      0.29616      0.52992  1.0000
  O2          0.35666      0.02485      0.19758  1.0000
  O3          0.76757      0.29310      0.00999  1.0000
  O3          0.68581      0.44985      0.33942  1.0000
  O3          0.52355      0.20177      0.67206  1.0000
  O3          0.22323      0.67124      0.50609  1.0000
  O3          0.29281      0.51366      0.83965  1.0000
  O3          0.45943      0.75388      0.17571  1.0000
  O2          0.27660      0.74197      0.32439  1.0000
  O2          0.45833      0.69208      0.98771  1.0000
  O2          0.23322      0.50045      0.65505  1.0000
  O2          0.70577      0.22262      0.82092  1.0000
  O2          0.52015      0.25708      0.48832  1.0000
  O2          0.75907      0.45745      0.15615  1.0000
  O3          0.78313      0.54014      0.02859  1.0000
  O3          0.42619      0.20198      0.35794  1.0000
  O3          0.76944      0.18838      0.68979  1.0000
  O3          0.20940      0.41226      0.52381  1.0000
  O3          0.55156      0.75990      0.85869  1.0000
  O3          0.21597      0.76915      0.19267  1.0000
  O2          0.51082      0.76542      0.30859  1.0000
  O2          0.24647      0.46020      0.97202  1.0000
  O2          0.21141      0.71202      0.63840  1.0000
  O2          0.47295      0.19976      0.80393  1.0000
  O2          0.73170      0.49136      0.47121  1.0000
  O2          0.78252      0.25093      0.13728  1.0000
  O2          0.22780      0.32117      0.89783  1.0000
  O2          0.64917      0.88358      0.23373  1.0000
  O2          0.09258      0.73105      0.56456  1.0000
  O2          0.74921      0.63701      0.39931  1.0000
  O2          0.33255      0.07433      0.73171  1.0000
  O2          0.90536      0.23152      0.06523  1.0000
  O2          0.31423      0.19713      0.43606  1.0000
  O2          0.89933      0.66355      0.10398  1.0000
  O2          0.77046      0.08025      0.76784  1.0000
  O2          0.66624      0.75641      0.93467  1.0000
  O2          0.09574      0.29642      0.60077  1.0000
  O2          0.21212      0.88082      0.26904  1.0000
  O2          0.56998      0.55107      0.98956  1.0000
  O2          0.41655      0.99390      0.32329  1.0000
  O2          0.98158      0.38723      0.65582  1.0000
  O2          0.41039      0.39812      0.49265  1.0000
  O2          0.56503      0.97100      0.82376  1.0000
  O2          0.00887      0.56885      0.16020  1.0000
  O2          0.53949      0.55598      0.34791  1.0000
  O3          0.02459      0.42355      0.00555  1.0000
  O2          0.41781      0.94878      0.67970  1.0000
  O2          0.43856      0.40577      0.84419  1.0000
  O2          0.96960      0.52244      0.51173  1.0000
  O2          0.56722      0.00830      0.17980  1.0000
  O2          0.55442      0.13628      0.25262  1.0000
  O2          0.84139      0.38156      0.58560  1.0000
  O2          0.57328      0.41670      0.91809  1.0000
  O2          0.42944      0.82574      0.75471  1.0000
  O3          0.16830      0.58264      0.09331  1.0000
  O2          0.40194      0.53651      0.42350  1.0000
  F           0.40575      0.84710      0.24436  1.0000
  F           0.12915      0.52409      0.57549  1.0000
  F           0.43690      0.56266      0.90839  1.0000
  F           0.57726      0.11270      0.74193  1.0000
  F           0.92693      0.46510      0.07414  1.0000
  F           0.54181      0.39185      0.40971  1.0000
