data_cif

_audit_creation_method             'generated by GULP'

_symmetry_space_group_name_H-M     'P 1'
_symmetry_Int_Tables_number        1
_symmetry_cell_setting             triclinic

_cell_length_a                       12.0242
_cell_length_b                       12.0328
_cell_length_c                       29.5072
_cell_angle_alpha                   90.0383
_cell_angle_beta                    90.0566
_cell_angle_gamma                  120.0553

loop_
_atom_site_label
_atom_site_fract_x
_atom_site_fract_y
_atom_site_fract_z
_atom_site_occupancy
  Ge          0.69960      0.37570      0.03389  1.0000
  Si          0.62569      0.31838      0.36757  1.0000
  Si          0.67868      0.30252      0.69944  1.0000
  Ge          0.29096      0.61391      0.54652  1.0000
  Ge          0.38603      0.67608      0.87949  1.0000
  Ge          0.32466      0.70691      0.21372  1.0000
  Si          0.37338      0.69141      0.31212  1.0000
  Si          0.32509      0.62487      0.97805  1.0000
  Si          0.30444      0.67699      0.64503  1.0000
  Ge          0.61688      0.29080      0.79787  1.0000
  Ge          0.67514      0.38229      0.46590  1.0000
  Ge          0.70488      0.32087      0.13291  1.0000
  Si          0.53807      0.42045      0.96208  1.0000
  Si          0.57672      0.10915      0.29933  1.0000
  Si          0.88675      0.46160      0.63071  1.0000
  Si          0.47894      0.57960      0.48441  1.0000
  Si          0.41837      0.89782      0.81761  1.0000
  Si          0.10468      0.51932      0.15049  1.0000
  Si          0.42258      0.53267      0.38100  1.0000
  Si          0.11736      0.57708      0.04724  1.0000
  Si          0.46291      0.88512      0.71423  1.0000
  Si          0.58259      0.48050      0.85868  1.0000
  Si          0.89827      0.41610      0.52735  1.0000
  Si          0.51961      0.09917      0.19602  1.0000
  Si          0.29488      0.40947      0.85010  1.0000
  Si          0.59265      0.88465      0.18605  1.0000
  Si          0.11369      0.70395      0.51841  1.0000
  Si          0.70490      0.60374      0.36157  1.0000
  Si          0.39260      0.09648      0.69441  1.0000
  Si          0.90522      0.29325      0.02709  1.0000
  Si          0.40760      0.29211      0.49362  1.0000
  Si          0.88836      0.59113      0.15917  1.0000
  Si          0.70677      0.11378      0.82629  1.0000
  Si          0.61133      0.70235      0.98308  1.0000
  Si          0.09813      0.39115      0.65044  1.0000
  Si          0.29441      0.89771      0.31841  1.0000
  Si          0.25584      0.34553      0.95285  1.0000
  Si          0.65412      0.90482      0.28916  1.0000
  Si          0.09131      0.74400      0.62141  1.0000
  Si          0.76161      0.66209      0.46409  1.0000
  Si          0.33637      0.09798      0.79693  1.0000
  Si          0.90367      0.23734      0.12964  1.0000
  Si          0.34512      0.25047      0.39061  1.0000
  Si          0.91474      0.65893      0.05651  1.0000
  Si          0.74579      0.08998      0.72329  1.0000
  Si          0.66608      0.76228      0.88046  1.0000
  Si          0.09811      0.33363      0.54796  1.0000
  Si          0.23660      0.89895      0.21601  1.0000
  Si          0.98410      0.12241      0.97344  1.0000
  Si          0.87608      0.85265      0.30777  1.0000
  Si          0.14250      0.01771      0.64089  1.0000
  Si          0.03607      0.88075      0.47169  1.0000
  Si          0.11773      0.15408      0.80426  1.0000
  Si          0.84635      0.96242      0.13833  1.0000
  Si          0.12259      0.97616      0.37091  1.0000
  Si          0.86121      0.87865      0.03726  1.0000
  Si          0.01952      0.14112      0.70359  1.0000
  Si          0.88432      0.03682      0.87282  1.0000
  Si          0.15328      0.11470      0.54013  1.0000
  Si          0.96244      0.84405      0.20664  1.0000
  O2          0.94734      0.00095      0.00563  1.0000
  O2          0.00108      0.93948      0.33847  1.0000
  O2          0.05562      0.05448      0.67201  1.0000
  O2          0.08719      0.99860      0.50552  1.0000
  O2          0.00145      0.08861      0.83871  1.0000
  O2          0.91510      0.91178      0.17162  1.0000
  O2          0.34747      0.58790      0.35184  1.0000
  O2          0.40687      0.75424      0.68527  1.0000
  O2          0.24877      0.65040      0.01852  1.0000
  O3          0.65668      0.43636      0.82662  1.0000
  O3          0.56426      0.21863      0.16487  1.0000
  O3          0.77956      0.34213      0.49543  1.0000
  O3          0.58952      0.34383      0.99029  1.0000
  O2          0.75546      0.40496      0.65928  1.0000
  O2          0.65185      0.24031      0.32801  1.0000
  O3          0.43485      0.65372      0.51639  1.0000
  O3          0.22161      0.56331      0.18316  1.0000
  O3          0.34532      0.78042      0.85000  1.0000
  O2          0.13797      0.21568      0.97431  1.0000
  O2          0.78200      0.91218      0.31068  1.0000
  O2          0.08314      0.86400      0.64292  1.0000
  O2          0.88353      0.79867      0.47955  1.0000
  O2          0.20034      0.08437      0.81234  1.0000
  O2          0.91546      0.11486      0.14639  1.0000
  O2          0.21706      0.12993      0.36903  1.0000
  O2          0.92867      0.79185      0.03709  1.0000
  O2          0.86566      0.08157      0.70174  1.0000
  O2          0.80217      0.88439      0.86486  1.0000
  O2          0.08291      0.19687      0.53266  1.0000
  O2          0.11567      0.91515      0.20064  1.0000
  O2          0.92324      0.86002      0.25691  1.0000
  O2          0.13448      0.06032      0.59055  1.0000
  O2          0.93695      0.06914      0.92357  1.0000
  O2          0.06323      0.13266      0.75372  1.0000
  O2          0.86214      0.92971      0.08716  1.0000
  O2          0.06911      0.93295      0.42089  1.0000
  O2          0.91819      0.20360      0.98894  1.0000
  O2          0.79736      0.70432      0.32324  1.0000
  O2          0.29105      0.08724      0.65623  1.0000
  O2          0.10346      0.79637      0.48079  1.0000
  O2          0.20208      0.30650      0.81245  1.0000
  O2          0.69488      0.89425      0.14841  1.0000
  O2          0.20233      0.90661      0.35665  1.0000
  O2          0.71350      0.79448      0.02119  1.0000
  O2          0.08898      0.28978      0.68856  1.0000
  O2          0.79937      0.10388      0.86400  1.0000
  O2          0.30523      0.19996      0.53130  1.0000
  O2          0.89742      0.69257      0.19717  1.0000
  O3          0.31176      0.62040      0.26594  1.0000
  O3          0.37652      0.68705      0.59912  1.0000
  O3          0.31506      0.68852      0.93251  1.0000
  O3          0.68988      0.37535      0.74522  1.0000
  O1          0.61762      0.30739      0.08225  1.0000
  O3          0.68763      0.30883      0.41353  1.0000
  O2          0.38300      0.34173      0.96721  1.0000
  O2          0.65833      0.03588      0.30462  1.0000
  O2          0.96008      0.61647      0.63638  1.0000
  O2          0.63566      0.66531      0.48141  1.0000
  O2          0.33282      0.96884      0.81454  1.0000
  O2          0.03261      0.36286      0.14733  1.0000
  O2          0.34118      0.37773      0.37555  1.0000
  O2          0.04538      0.65990      0.04211  1.0000
  O2          0.61788      0.95840      0.70868  1.0000
  O2          0.66822      0.63715      0.86160  1.0000
  O2          0.96917      0.33054      0.53024  1.0000
  O2          0.36297      0.02743      0.19845  1.0000
  O3          0.77901      0.29648      0.01363  1.0000
  O2          0.69590      0.46806      0.34982  1.0000
  O2          0.52827      0.22270      0.68217  1.0000
  O3          0.24949      0.71383      0.51348  1.0000
  O3          0.28601      0.53590      0.84565  1.0000
  O3          0.46617      0.74942      0.18063  1.0000
  O2          0.30277      0.77057      0.32977  1.0000
  O2          0.47544      0.69306      0.99529  1.0000
  O2          0.22482      0.52693      0.66239  1.0000
  O3          0.71665      0.24959      0.83116  1.0000
  O3          0.53376      0.28286      0.49892  1.0000
  O3          0.75253      0.46493      0.16442  1.0000
  O3          0.79284      0.54354      0.03292  1.0000
  O2          0.46894      0.25224      0.36911  1.0000
  O2          0.74417      0.21153      0.70135  1.0000
  O3          0.22642      0.44827      0.52843  1.0000
  O3          0.55150      0.77758      0.86175  1.0000
  O3          0.22248      0.77063      0.19622  1.0000
  O2          0.53001      0.78235      0.31031  1.0000
  O2          0.25678      0.46816      0.97529  1.0000
  O2          0.21363      0.74265      0.64293  1.0000
  O3          0.45160      0.22611      0.81640  1.0000
  O3          0.77545      0.54791      0.48392  1.0000
  O3          0.77560      0.22564      0.14890  1.0000
  O2          0.23634      0.33728      0.89871  1.0000
  O2          0.66371      0.89772      0.23490  1.0000
  O2          0.09935      0.76136      0.56718  1.0000
  O2          0.77562      0.66633      0.40865  1.0000
  O2          0.33128      0.10626      0.74146  1.0000
  O2          0.89769      0.22354      0.07448  1.0000
  O2          0.33592      0.23346      0.44483  1.0000
  O2          0.90312      0.66375      0.11090  1.0000
  O2          0.76418      0.09951      0.77750  1.0000
  O2          0.67220      0.77324      0.93596  1.0000
  O2          0.10695      0.32912      0.60339  1.0000
  O2          0.22361      0.89017      0.27141  1.0000
  O2          0.59622      0.56163      0.98520  1.0000
  O2          0.43544      0.02314      0.32113  1.0000
  O2          0.97229      0.40597      0.65264  1.0000
  O2          0.43754      0.43710      0.50294  1.0000
  O2          0.56150      0.99938      0.83584  1.0000
  O2          0.00170      0.55897      0.16826  1.0000
  O2          0.56403      0.58866      0.35921  1.0000
  O2          0.02880      0.43650      0.02545  1.0000
  O2          0.40696      0.97039      0.69234  1.0000
  O2          0.43969      0.43911      0.84029  1.0000
  O2          0.99918      0.55868      0.50869  1.0000
  O2          0.56331      0.00023      0.17682  1.0000
  O2          0.57399      0.14557      0.24741  1.0000
  O2          0.85081      0.42328      0.57864  1.0000
  O2          0.57681      0.42639      0.90983  1.0000
  O2          0.42448      0.84924      0.76628  1.0000
  O2          0.15366      0.57415      0.09934  1.0000
  O2          0.42447      0.57196      0.43293  1.0000
  F           0.41773      0.85579      0.24681  1.0000
  F           0.14155      0.55769      0.57919  1.0000
  F           0.44153      0.58106      0.91147  1.0000
  F           0.56016      0.14098      0.76531  1.0000
  F           0.85320      0.41640      0.09560  1.0000
  F           0.58154      0.43766      0.43278  1.0000
