data_cif

_audit_creation_method             'generated by GULP'

_symmetry_space_group_name_H-M     'P 1'
_symmetry_Int_Tables_number        1
_symmetry_cell_setting             triclinic

_cell_length_a                       12.0527
_cell_length_b                       12.0451
_cell_length_c                       29.5637
_cell_angle_alpha                   90.7811
_cell_angle_beta                    89.2726
_cell_angle_gamma                  120.1098

loop_
_atom_site_label
_atom_site_fract_x
_atom_site_fract_y
_atom_site_fract_z
_atom_site_occupancy
  Ge          0.69960      0.37570      0.03389  1.0000
  Ge          0.61119      0.33022      0.37079  1.0000
  Si          0.69128      0.30056      0.69993  1.0000
  Ge          0.29744      0.60628      0.54345  1.0000
  Ge          0.39370      0.67114      0.87567  1.0000
  Ge          0.32698      0.71057      0.20920  1.0000
  Ge          0.37400      0.69409      0.30796  1.0000
  Si          0.32658      0.62610      0.97379  1.0000
  Si          0.31815      0.67523      0.64155  1.0000
  Ge          0.62418      0.28386      0.79795  1.0000
  Si          0.69364      0.36129      0.46725  1.0000
  Ge          0.70809      0.32582      0.13250  1.0000
  Si          0.53880      0.41953      0.96260  1.0000
  Si          0.57659      0.11667      0.30243  1.0000
  Si          0.90227      0.46047      0.63254  1.0000
  Si          0.47865      0.56811      0.47883  1.0000
  Si          0.42693      0.89117      0.81359  1.0000
  Si          0.10844      0.52736      0.14454  1.0000
  Si          0.41552      0.52476      0.37580  1.0000
  Si          0.11519      0.57980      0.04149  1.0000
  Si          0.47772      0.88421      0.71030  1.0000
  Si          0.58898      0.47409      0.85923  1.0000
  Si          0.91094      0.40777      0.52996  1.0000
  Si          0.52577      0.11056      0.19875  1.0000
  Si          0.30272      0.40254      0.84840  1.0000
  Si          0.59866      0.89575      0.18546  1.0000
  Si          0.11951      0.69529      0.51634  1.0000
  Si          0.69967      0.60391      0.35259  1.0000
  Si          0.40674      0.09470      0.69237  1.0000
  Si          0.90451      0.29463      0.02306  1.0000
  Si          0.41250      0.28336      0.48495  1.0000
  Si          0.89355      0.59991      0.15570  1.0000
  Si          0.71441      0.10667      0.82393  1.0000
  Si          0.61146      0.70298      0.98126  1.0000
  Si          0.11267      0.38931      0.64935  1.0000
  Si          0.29143      0.89882      0.31716  1.0000
  Si          0.25786      0.34487      0.95110  1.0000
  Si          0.65700      0.91379      0.28814  1.0000
  Si          0.10491      0.74191      0.61962  1.0000
  Si          0.75634      0.64434      0.45545  1.0000
  Si          0.34427      0.09054      0.79468  1.0000
  Si          0.90804      0.24397      0.12529  1.0000
  Si          0.33263      0.23948      0.38381  1.0000
  Si          0.91308      0.66103      0.05304  1.0000
  Si          0.75950      0.08845      0.72090  1.0000
  Si          0.67272      0.75726      0.87881  1.0000
  Si          0.10933      0.32416      0.54683  1.0000
  Si          0.24203      0.90733      0.21490  1.0000
  Si          0.98510      0.12272      0.97075  1.0000
  Si          0.87441      0.85922      0.30364  1.0000
  Si          0.16022      0.01800      0.63802  1.0000
  Si          0.03281      0.86313      0.47013  1.0000
  Si          0.12618      0.14677      0.80175  1.0000
  Si          0.85180      0.97034      0.13603  1.0000
  Si          0.11108      0.96857      0.37009  1.0000
  Si          0.85969      0.88038      0.03480  1.0000
  Si          0.03425      0.14011      0.70116  1.0000
  Si          0.89137      0.03105      0.87027  1.0000
  Si          0.16451      0.10354      0.53618  1.0000
  Si          0.96964      0.85478      0.20340  1.0000
  O2          0.94561      0.00230      0.00317  1.0000
  O2          0.99000      0.92912      0.33866  1.0000
  O2          0.07156      0.05614      0.66802  1.0000
  O2          0.08001      0.97873      0.50591  1.0000
  O2          0.00698      0.08071      0.83516  1.0000
  O2          0.92413      0.92354      0.16859  1.0000
  O3          0.33976      0.57965      0.34969  1.0000
  O2          0.42282      0.75416      0.68050  1.0000
  O2          0.24635      0.65371      0.01242  1.0000
  O3          0.66385      0.42751      0.82802  1.0000
  O3          0.57333      0.23042      0.16767  1.0000
  O2          0.78277      0.33142      0.50022  1.0000
  O3          0.58642      0.34288      0.99163  1.0000
  O2          0.77163      0.40656      0.66118  1.0000
  O3          0.64991      0.23872      0.33312  1.0000
  O3          0.43908      0.64384      0.51244  1.0000
  O3          0.22751      0.57241      0.17524  1.0000
  O3          0.35308      0.77211      0.84465  1.0000
  O2          0.13846      0.21705      0.97283  1.0000
  O2          0.79011      0.92842      0.30722  1.0000
  O2          0.09930      0.86409      0.64065  1.0000
  O2          0.88110      0.76784      0.47720  1.0000
  O2          0.20691      0.07545      0.80946  1.0000
  O2          0.92254      0.12370      0.14190  1.0000
  O2          0.19225      0.12283      0.36927  1.0000
  O2          0.92524      0.79214      0.03323  1.0000
  O2          0.88088      0.08226      0.69907  1.0000
  O2          0.81002      0.87810      0.86337  1.0000
  O2          0.09655      0.18870      0.53122  1.0000
  O2          0.12266      0.92295      0.19785  1.0000
  O2          0.93177      0.87329      0.25377  1.0000
  O2          0.15929      0.06024      0.58736  1.0000
  O2          0.94516      0.06845      0.92050  1.0000
  O2          0.07555      0.12789      0.75083  1.0000
  O2          0.86200      0.93086      0.08496  1.0000
  O2          0.06111      0.91911      0.42034  1.0000
  O2          0.91681      0.20346      0.98470  1.0000
  O2          0.78626      0.70972      0.31525  1.0000
  O2          0.30732      0.08700      0.65422  1.0000
  O2          0.10636      0.78445      0.47884  1.0000
  O2          0.21154      0.29852      0.81072  1.0000
  O2          0.70185      0.90572      0.14770  1.0000
  O2          0.19808      0.90851      0.35516  1.0000
  O2          0.71176      0.79749      0.01919  1.0000
  O2          0.10518      0.28984      0.68732  1.0000
  O2          0.80516      0.09587      0.86130  1.0000
  O2          0.31467      0.18356      0.52265  1.0000
  O2          0.90320      0.70317      0.19340  1.0000
  O1          0.31233      0.61805      0.25801  1.0000
  O3          0.38613      0.68369      0.59465  1.0000
  O3          0.32026      0.68731      0.92755  1.0000
  O3          0.69959      0.37137      0.74596  1.0000
  O1          0.61867      0.30804      0.08255  1.0000
  O3          0.69462      0.30929      0.41813  1.0000
  O2          0.38348      0.34135      0.96647  1.0000
  O2          0.66012      0.04409      0.30282  1.0000
  O2          0.97397      0.61562      0.63570  1.0000
  O2          0.63506      0.64898      0.47616  1.0000
  O2          0.34062      0.96108      0.81106  1.0000
  O2          0.03617      0.37094      0.14205  1.0000
  O2          0.33124      0.36957      0.37113  1.0000
  O2          0.04239      0.66139      0.03677  1.0000
  O2          0.63263      0.95761      0.70497  1.0000
  O2          0.67478      0.63076      0.86091  1.0000
  O2          0.97987      0.32161      0.52913  1.0000
  O2          0.36928      0.03521      0.19799  1.0000
  O3          0.77701      0.29605      0.01136  1.0000
  O3          0.70100      0.47685      0.33964  1.0000
  O2          0.54287      0.22178      0.68129  1.0000
  O3          0.25276      0.70158      0.50983  1.0000
  O3          0.29544      0.52909      0.84231  1.0000
  O3          0.47122      0.76287      0.17695  1.0000
  O3          0.28836      0.76804      0.32779  1.0000
  O2          0.47541      0.69524      0.99193  1.0000
  O2          0.24124      0.52530      0.65880  1.0000
  O3          0.72335      0.24177      0.83001  1.0000
  O2          0.54721      0.28428      0.48876  1.0000
  O3          0.75893      0.47343      0.16227  1.0000
  O3          0.78961      0.54357      0.03122  1.0000
  O3          0.44197      0.22771      0.35837  1.0000
  O2          0.75791      0.21067      0.70028  1.0000
  O3          0.23523      0.43923      0.52676  1.0000
  O3          0.55998      0.77200      0.85875  1.0000
  O3          0.22939      0.77933      0.19462  1.0000
  O3          0.54075      0.79099      0.31106  1.0000
  O2          0.25850      0.46941      0.97197  1.0000
  O2          0.22642      0.73955      0.64035  1.0000
  O3          0.45788      0.21748      0.81539  1.0000
  O2          0.75733      0.51715      0.47111  1.0000
  O3          0.78062      0.23203      0.14572  1.0000
  O2          0.24107      0.33306      0.89690  1.0000
  O2          0.66397      0.89953      0.23383  1.0000
  O2          0.11031      0.75553      0.56540  1.0000
  O2          0.76829      0.66333      0.40134  1.0000
  O2          0.34263      0.10155      0.73937  1.0000
  O2          0.90075      0.22771      0.07027  1.0000
  O2          0.33751      0.22218      0.43842  1.0000
  O2          0.90598      0.66987      0.10741  1.0000
  O2          0.77426      0.09468      0.77501  1.0000
  O2          0.67547      0.77100      0.93406  1.0000
  O2          0.11426      0.32235      0.60212  1.0000
  O2          0.22647      0.90010      0.26991  1.0000
  O2          0.59498      0.56215      0.98458  1.0000
  O2          0.43523      0.01701      0.32245  1.0000
  O2          0.98968      0.40817      0.65408  1.0000
  O2          0.43637      0.42435      0.49578  1.0000
  O2          0.56875      0.99215      0.83251  1.0000
  O2          0.00773      0.56912      0.16367  1.0000
  O2          0.55515      0.58256      0.35134  1.0000
  O2          0.02695      0.43837      0.02000  1.0000
  O2          0.42229      0.96943      0.68893  1.0000
  O2          0.44736      0.43031      0.83968  1.0000
  O2          0.00133      0.54870      0.50903  1.0000
  O2          0.57402      0.01470      0.17950  1.0000
  O2          0.57010      0.15453      0.25063  1.0000
  O2          0.86472      0.41448      0.58099  1.0000
  O2          0.58090      0.42334      0.91061  1.0000
  O2          0.43667      0.84591      0.76186  1.0000
  O2          0.15335      0.57934      0.09305  1.0000
  O2          0.42487      0.56454      0.42853  1.0000
  F           0.41825      0.85452      0.24784  1.0000
  F           0.14964      0.55079      0.57695  1.0000
  F           0.44672      0.57767      0.90888  1.0000
  F           0.57030      0.13642      0.76350  1.0000
  F           0.85438      0.42086      0.09218  1.0000
  F           0.56254      0.41707      0.41104  1.0000
