data_cif

_audit_creation_method             'generated by GULP'

_symmetry_space_group_name_H-M     'P 1'
_symmetry_Int_Tables_number        1
_symmetry_cell_setting             triclinic

_cell_length_a                       12.0320
_cell_length_b                       12.0351
_cell_length_c                       29.5418
_cell_angle_alpha                   89.8699
_cell_angle_beta                    90.0000
_cell_angle_gamma                  119.9916

loop_
_atom_site_label
_atom_site_fract_x
_atom_site_fract_y
_atom_site_fract_z
_atom_site_occupancy
  Ge          0.69960      0.37570      0.03389  1.0000
  Ge          0.60633      0.31190      0.36660  1.0000
  Ge          0.66585      0.28424      0.70244  1.0000
  Ge          0.28747      0.61482      0.52215  1.0000
  Si          0.36500      0.67155      0.85555  1.0000
  Si          0.31017      0.68516      0.18701  1.0000
  Ge          0.37322      0.69898      0.28527  1.0000
  Ge          0.31551      0.60752      0.95383  1.0000
  Ge          0.28604      0.67132      0.62112  1.0000
  Si          0.61661      0.29805      0.80071  1.0000
  Ge          0.66426      0.36840      0.46557  1.0000
  Si          0.68505      0.31166      0.13217  1.0000
  Si          0.51094      0.41033      0.97243  1.0000
  Si          0.57115      0.09064      0.30367  1.0000
  Si          0.88772      0.47285      0.64052  1.0000
  Si          0.45036      0.57134      0.45035  1.0000
  Si          0.41451      0.88102      0.78725  1.0000
  Si          0.10200      0.52606      0.11856  1.0000
  Si          0.40648      0.51037      0.34720  1.0000
  Si          0.09222      0.57288      0.01529  1.0000
  Si          0.47211      0.89257      0.68405  1.0000
  Si          0.56755      0.45716      0.86915  1.0000
  Si          0.87063      0.41187      0.53737  1.0000
  Si          0.52510      0.10220      0.20047  1.0000
  Si          0.28558      0.38614      0.84963  1.0000
  Si          0.59572      0.89103      0.18119  1.0000
  Si          0.07943      0.69542      0.51587  1.0000
  Si          0.69429      0.58136      0.33896  1.0000
  Si          0.39841      0.10693      0.67444  1.0000
  Si          0.87678      0.28547      0.00614  1.0000
  Si          0.37562      0.28780      0.47185  1.0000
  Si          0.89104      0.59707      0.13809  1.0000
  Si          0.69630      0.09219      0.80652  1.0000
  Si          0.58292      0.69775      0.98157  1.0000
  Si          0.10454      0.40186      0.64875  1.0000
  Si          0.28309      0.87629      0.31328  1.0000
  Si          0.22856      0.32770      0.95205  1.0000
  Si          0.65360      0.89053      0.28353  1.0000
  Si          0.08669      0.75405      0.61845  1.0000
  Si          0.73467      0.65064      0.44125  1.0000
  Si          0.33657      0.08518      0.77745  1.0000
  Si          0.89775      0.24400      0.10907  1.0000
  Si          0.32424      0.22916      0.36927  1.0000
  Si          0.89247      0.65552      0.03567  1.0000
  Si          0.75468      0.09268      0.70419  1.0000
  Si          0.64536      0.73921      0.87865  1.0000
  Si          0.07564      0.33257      0.54647  1.0000
  Si          0.24300      0.89804      0.21027  1.0000
  Si          0.95450      0.10874      0.95970  1.0000
  Si          0.87288      0.83537      0.29247  1.0000
  Si          0.14450      0.02901      0.62697  1.0000
  Si          0.00546      0.87110      0.46146  1.0000
  Si          0.11451      0.13701      0.79615  1.0000
  Si          0.84627      0.96995      0.12864  1.0000
  Si          0.10710      0.95421      0.36075  1.0000
  Si          0.83737      0.87448      0.02801  1.0000
  Si          0.02912      0.14785      0.69525  1.0000
  Si          0.86793      0.01326      0.85908  1.0000
  Si          0.12597      0.11212      0.52625  1.0000
  Si          0.96911      0.84621      0.19157  1.0000
  O2          0.90391      0.99161      0.99386  1.0000
  O2          0.98734      0.90225      0.32769  1.0000
  O2          0.07670      0.08097      0.66003  1.0000
  O2          0.04185      0.99161      0.49386  1.0000
  O2          0.98992      0.05030      0.82696  1.0000
  O2          0.93123      0.93291      0.16075  1.0000
  O3          0.33316      0.55414      0.31466  1.0000
  O3          0.42745      0.77388      0.65264  1.0000
  O3          0.21107      0.64718      0.98357  1.0000
  O2          0.64247      0.40120      0.84044  1.0000
  O2          0.58124      0.23345      0.17184  1.0000
  O3          0.74174      0.33675      0.50951  1.0000
  O3          0.55550      0.33604      0.00415  1.0000
  O3          0.77063      0.42908      0.67306  1.0000
  O3          0.64518      0.20934      0.33507  1.0000
  O3          0.39660      0.64647      0.47821  1.0000
  O2          0.23288      0.58202      0.14728  1.0000
  O2          0.33939      0.74976      0.81588  1.0000
  O2          0.10690      0.19103      0.96740  1.0000
  O2          0.79008      0.90547      0.29892  1.0000
  O2          0.07573      0.87682      0.63535  1.0000
  O2          0.85132      0.78540      0.46036  1.0000
  O2          0.20866      0.07753      0.79896  1.0000
  O2          0.90532      0.12357      0.13059  1.0000
  O2          0.19052      0.10640      0.35237  1.0000
  O2          0.90748      0.79219      0.02032  1.0000
  O2          0.87622      0.07775      0.68880  1.0000
  O2          0.77336      0.85965      0.85713  1.0000
  O2          0.05753      0.19782      0.52735  1.0000
  O2          0.12274      0.90569      0.18876  1.0000
  O2          0.92907      0.85415      0.24228  1.0000
  O2          0.12732      0.05920      0.57565  1.0000
  O2          0.92074      0.05571      0.90912  1.0000
  O2          0.06653      0.12907      0.74544  1.0000
  O2          0.85664      0.92750      0.07860  1.0000
  O2          0.05973      0.92402      0.41207  1.0000
  O2          0.88722      0.19325      0.96862  1.0000
  O2          0.78718      0.68333      0.30109  1.0000
  O2          0.29605      0.09738      0.63686  1.0000
  O2          0.06503      0.78481      0.47795  1.0000
  O2          0.19316      0.28534      0.81146  1.0000
  O2          0.69708      0.90028      0.14304  1.0000
  O2          0.19028      0.88584      0.35085  1.0000
  O2          0.68558      0.78996      0.01910  1.0000
  O2          0.09546      0.29989      0.68662  1.0000
  O2          0.78842      0.08294      0.84467  1.0000
  O2          0.27183      0.19840      0.50977  1.0000
  O2          0.89943      0.69788      0.17626  1.0000
  O3          0.29968      0.61346      0.23300  1.0000
  O1          0.37120      0.68485      0.57004  1.0000
  O3          0.30307      0.68106      0.90146  1.0000
  O3          0.67783      0.36976      0.75471  1.0000
  O3          0.61361      0.30215      0.08626  1.0000
  O1          0.67796      0.29837      0.41768  1.0000
  O2          0.35444      0.32469      0.96958  1.0000
  O2          0.65597      0.01894      0.30118  1.0000
  O2          0.95954      0.62926      0.63734  1.0000
  O2          0.60523      0.65094      0.45530  1.0000
  O2          0.33258      0.95393      0.79254  1.0000
  O2          0.02877      0.37126      0.12414  1.0000
  O2          0.32189      0.35396      0.35037  1.0000
  O2          0.02136      0.65853      0.01814  1.0000
  O2          0.62864      0.96428      0.68654  1.0000
  O2          0.64912      0.61196      0.86358  1.0000
  O2          0.94591      0.33228      0.53242  1.0000
  O2          0.37026      0.02929      0.19518  1.0000
  O3          0.74137      0.27612      0.00096  1.0000
  O3          0.70312      0.45477      0.33439  1.0000
  O3          0.52478      0.24219      0.66918  1.0000
  O3          0.20537      0.69160      0.50209  1.0000
  O2          0.29462      0.52190      0.83792  1.0000
  O2          0.46023      0.76431      0.16957  1.0000
  O3          0.27420      0.74103      0.31854  1.0000
  O3          0.45686      0.70710      0.98676  1.0000
  O3          0.23996      0.52845      0.65333  1.0000
  O2          0.68753      0.21891      0.81814  1.0000
  O3          0.50538      0.29162      0.48563  1.0000
  O2          0.76432      0.46131      0.14980  1.0000
  O3          0.76448      0.54133      0.01596  1.0000
  O3          0.44055      0.21598      0.35089  1.0000
  O3          0.76800      0.22080      0.68459  1.0000
  O3          0.19715      0.44690      0.52222  1.0000
  O2          0.52153      0.73747      0.85724  1.0000
  O2          0.24488      0.77629      0.18877  1.0000
  O3          0.53880      0.76241      0.30313  1.0000
  O3          0.21476      0.44188      0.97176  1.0000
  O3          0.21617      0.76724      0.63682  1.0000
  O2          0.46020      0.20693      0.79894  1.0000
  O3          0.74186      0.53632      0.46549  1.0000
  O2          0.77567      0.24575      0.13048  1.0000
  O2          0.21505      0.32360      0.89667  1.0000
  O2          0.65824      0.88264      0.22816  1.0000
  O2          0.08880      0.76530      0.56330  1.0000
  O2          0.75259      0.65454      0.38700  1.0000
  O2          0.32750      0.09359      0.72327  1.0000
  O2          0.89017      0.22727      0.05489  1.0000
  O2          0.31510      0.21791      0.42441  1.0000
  O2          0.88306      0.65961      0.09104  1.0000
  O2          0.76721      0.10058      0.75956  1.0000
  O2          0.65451      0.75595      0.93282  1.0000
  O2          0.08965      0.32868      0.60072  1.0000
  O2          0.22552      0.88963      0.26445  1.0000
  O2          0.55256      0.55267      0.99109  1.0000
  O2          0.42811      0.99142      0.32255  1.0000
  O2          0.99107      0.43356      0.65824  1.0000
  O2          0.39528      0.43081      0.47331  1.0000
  O2          0.55554      0.96673      0.80912  1.0000
  O2          0.01658      0.58179      0.14047  1.0000
  O2          0.54912      0.54965      0.32948  1.0000
  O2          0.99149      0.43054      0.99663  1.0000
  O2          0.42830      0.99180      0.66517  1.0000
  O2          0.42641      0.40143      0.84725  1.0000
  O2          0.95608      0.55241      0.51441  1.0000
  O2          0.58042      0.01649      0.17860  1.0000
  O2          0.56408      0.13793      0.25236  1.0000
  O2          0.83820      0.41814      0.58967  1.0000
  O2          0.56531      0.41818      0.92107  1.0000
  O2          0.41776      0.84529      0.73536  1.0000
  O2          0.13873      0.56503      0.06665  1.0000
  O2          0.41167      0.56508      0.39805  1.0000
  F           0.42968      0.84819      0.25250  1.0000
  F           0.13646      0.57412      0.58469  1.0000
  F           0.40889      0.55202      0.92089  1.0000
  F           0.57310      0.13503      0.73522  1.0000
  F           0.84848      0.43120      0.06683  1.0000
  F           0.55395      0.40910      0.40303  1.0000
