data_cif

_audit_creation_method             'generated by GULP'

_symmetry_space_group_name_H-M     'P 1'
_symmetry_Int_Tables_number        1
_symmetry_cell_setting             triclinic

_cell_length_a                       12.0270
_cell_length_b                       12.0357
_cell_length_c                       29.5445
_cell_angle_alpha                   89.9483
_cell_angle_beta                    89.9449
_cell_angle_gamma                  119.9452

loop_
_atom_site_label
_atom_site_fract_x
_atom_site_fract_y
_atom_site_fract_z
_atom_site_occupancy
  Ge          0.69960      0.37570      0.03389  1.0000
  Ge          0.61384      0.31658      0.36856  1.0000
  Ge          0.66989      0.28604      0.70223  1.0000
  Si          0.29630      0.62022      0.52279  1.0000
  Si          0.36835      0.67421      0.85542  1.0000
  Si          0.31827      0.68983      0.18905  1.0000
  Ge          0.38062      0.70212      0.28743  1.0000
  Ge          0.31969      0.60967      0.95375  1.0000
  Ge          0.28612      0.67131      0.62128  1.0000
  Si          0.61996      0.29908      0.80041  1.0000
  Ge          0.67284      0.37168      0.46742  1.0000
  Ge          0.69373      0.31499      0.13262  1.0000
  Si          0.51377      0.41247      0.97137  1.0000
  Si          0.57661      0.09307      0.30662  1.0000
  Si          0.89486      0.47644      0.64204  1.0000
  Si          0.45602      0.57189      0.45358  1.0000
  Si          0.41801      0.88240      0.78650  1.0000
  Si          0.11043      0.52996      0.12018  1.0000
  Si          0.41194      0.51384      0.35043  1.0000
  Si          0.09955      0.57636      0.01703  1.0000
  Si          0.47484      0.89313      0.68320  1.0000
  Si          0.57112      0.45974      0.86820  1.0000
  Si          0.87930      0.41626      0.53877  1.0000
  Si          0.53043      0.10695      0.20341  1.0000
  Si          0.28916      0.38891      0.84912  1.0000
  Si          0.60395      0.89837      0.18313  1.0000
  Si          0.08766      0.69782      0.51774  1.0000
  Si          0.70054      0.58633      0.34202  1.0000
  Si          0.40284      0.10907      0.67427  1.0000
  Si          0.88320      0.28870      0.00817  1.0000
  Si          0.38449      0.28856      0.47384  1.0000
  Si          0.89882      0.60236      0.14011  1.0000
  Si          0.69983      0.09335      0.80604  1.0000
  Si          0.58755      0.69992      0.98139  1.0000
  Si          0.11078      0.40476      0.65060  1.0000
  Si          0.28923      0.87798      0.31628  1.0000
  Si          0.23106      0.32953      0.95142  1.0000
  Si          0.66049      0.89471      0.28556  1.0000
  Si          0.09272      0.75794      0.62026  1.0000
  Si          0.74080      0.65425      0.44458  1.0000
  Si          0.34006      0.08694      0.77718  1.0000
  Si          0.90807      0.24583      0.11073  1.0000
  Si          0.33126      0.23229      0.37136  1.0000
  Si          0.89869      0.65757      0.03764  1.0000
  Si          0.75707      0.09319      0.70360  1.0000
  Si          0.64890      0.74130      0.87837  1.0000
  Si          0.08612      0.34103      0.54795  1.0000
  Si          0.24901      0.90035      0.21352  1.0000
  Si          0.95730      0.10997      0.96084  1.0000
  Si          0.87946      0.83955      0.29485  1.0000
  Si          0.14836      0.03210      0.62800  1.0000
  Si          0.01382      0.87406      0.46394  1.0000
  Si          0.11745      0.13846      0.79694  1.0000
  Si          0.85431      0.97226      0.12992  1.0000
  Si          0.11365      0.95718      0.36312  1.0000
  Si          0.84142      0.87518      0.02898  1.0000
  Si          0.03179      0.14928      0.69641  1.0000
  Si          0.87086      0.01524      0.85986  1.0000
  Si          0.13447      0.11787      0.52753  1.0000
  Si          0.97714      0.85120      0.19399  1.0000
  O2          0.91044      0.99519      0.99599  1.0000
  O2          0.99469      0.90637      0.32974  1.0000
  O2          0.08317      0.08328      0.66245  1.0000
  O2          0.04958      0.99582      0.49573  1.0000
  O2          0.99626      0.05372      0.82947  1.0000
  O2          0.93852      0.93576      0.16248  1.0000
  O3          0.33972      0.55794      0.31762  1.0000
  O3          0.43058      0.77552      0.65105  1.0000
  O3          0.21666      0.64966      0.98457  1.0000
  O2          0.64609      0.40307      0.83994  1.0000
  O3          0.58170      0.23523      0.17547  1.0000
  O3          0.75075      0.33981      0.51099  1.0000
  O3          0.55900      0.33746      0.00218  1.0000
  O3          0.77590      0.43171      0.67380  1.0000
  O3          0.65172      0.21266      0.33765  1.0000
  O2          0.39791      0.64525      0.48228  1.0000
  O2          0.24140      0.58720      0.14903  1.0000
  O2          0.34295      0.75201      0.81564  1.0000
  O2          0.11037      0.19232      0.96668  1.0000
  O2          0.79707      0.91016      0.30114  1.0000
  O2          0.07833      0.87979      0.63573  1.0000
  O2          0.85959      0.78710      0.46401  1.0000
  O2          0.21200      0.07925      0.79874  1.0000
  O2          0.92135      0.12640      0.13017  1.0000
  O2          0.19759      0.10925      0.35464  1.0000
  O2          0.91030      0.79172      0.02081  1.0000
  O2          0.87961      0.07972      0.68817  1.0000
  O2          0.77671      0.86178      0.85693  1.0000
  O2          0.07421      0.21131      0.52654  1.0000
  O2          0.13077      0.91154      0.19206  1.0000
  O2          0.93394      0.85728      0.24446  1.0000
  O2          0.12817      0.06542      0.57748  1.0000
  O2          0.91748      0.05447      0.91073  1.0000
  O2          0.06326      0.12769      0.74712  1.0000
  O2          0.85780      0.92280      0.08023  1.0000
  O2          0.06431      0.92616      0.41422  1.0000
  O2          0.89236      0.19646      0.97028  1.0000
  O2          0.79319      0.68797      0.30412  1.0000
  O2          0.30036      0.09892      0.63666  1.0000
  O2          0.07749      0.78997      0.47981  1.0000
  O2          0.19707      0.28774      0.81106  1.0000
  O2          0.70589      0.90826      0.14504  1.0000
  O2          0.19622      0.88780      0.35380  1.0000
  O2          0.69010      0.79247      0.01887  1.0000
  O2          0.10031      0.30149      0.68809  1.0000
  O2          0.79233      0.08493      0.84427  1.0000
  O2          0.28148      0.19869      0.51187  1.0000
  O2          0.91080      0.70431      0.17832  1.0000
  O3          0.30897      0.61745      0.23484  1.0000
  O3          0.36975      0.68380      0.56831  1.0000
  O3          0.30680      0.68347      0.90158  1.0000
  O3          0.68149      0.37114      0.75462  1.0000
  O1          0.61206      0.30177      0.08433  1.0000
  O1          0.68765      0.30394      0.41924  1.0000
  O2          0.35736      0.32762      0.96916  1.0000
  O2          0.66143      0.02129      0.30437  1.0000
  O2          0.96572      0.63287      0.63931  1.0000
  O2          0.61078      0.65501      0.45866  1.0000
  O2          0.33630      0.95559      0.79194  1.0000
  O2          0.03849      0.37523      0.12522  1.0000
  O2          0.32764      0.35749      0.35357  1.0000
  O2          0.02752      0.66083      0.02013  1.0000
  O2          0.63144      0.96409      0.68621  1.0000
  O2          0.65292      0.61450      0.86283  1.0000
  O2          0.95539      0.33741      0.53353  1.0000
  O2          0.37548      0.03089      0.19863  1.0000
  O3          0.74780      0.27970      0.00261  1.0000
  O3          0.71022      0.46022      0.33686  1.0000
  O3          0.52892      0.24446      0.66907  1.0000
  O2          0.21437      0.68856      0.50564  1.0000
  O2          0.29754      0.52451      0.83787  1.0000
  O2          0.46827      0.77122      0.17159  1.0000
  O3          0.28146      0.74329      0.32122  1.0000
  O3          0.46117      0.70875      0.98675  1.0000
  O3          0.24604      0.53109      0.65500  1.0000
  O2          0.69048      0.21967      0.81799  1.0000
  O3          0.51388      0.29212      0.48747  1.0000
  O3          0.77252      0.47294      0.15331  1.0000
  O3          0.77093      0.54164      0.01821  1.0000
  O3          0.44816      0.22133      0.35226  1.0000
  O3          0.77014      0.22096      0.68390  1.0000
  O2          0.20792      0.46373      0.52566  1.0000
  O2          0.52476      0.73969      0.85735  1.0000
  O2          0.25015      0.77835      0.19160  1.0000
  O3          0.54637      0.76495      0.30447  1.0000
  O3          0.21702      0.44373      0.97111  1.0000
  O3          0.22252      0.77322      0.63888  1.0000
  O2          0.46344      0.20831      0.79895  1.0000
  O3          0.74693      0.53927      0.46845  1.0000
  O3          0.78638      0.23977      0.13418  1.0000
  O2          0.21864      0.32559      0.89609  1.0000
  O2          0.66610      0.88994      0.23016  1.0000
  O2          0.09730      0.76841      0.56484  1.0000
  O2          0.75801      0.65865      0.39028  1.0000
  O2          0.33136      0.09586      0.72303  1.0000
  O2          0.89692      0.23000      0.05639  1.0000
  O2          0.32298      0.21894      0.42648  1.0000
  O2          0.89222      0.66509      0.09273  1.0000
  O2          0.77059      0.10216      0.75901  1.0000
  O2          0.65847      0.75756      0.93257  1.0000
  O2          0.09692      0.33272      0.60204  1.0000
  O2          0.23037      0.89037      0.26765  1.0000
  O2          0.55777      0.55487      0.99076  1.0000
  O2          0.43377      0.99400      0.32569  1.0000
  O2          0.99590      0.43477      0.66059  1.0000
  O2          0.40399      0.43158      0.47544  1.0000
  O2          0.55921      0.96760      0.80834  1.0000
  O2          0.02208      0.58219      0.14194  1.0000
  O2          0.55499      0.55377      0.33295  1.0000
  O2          0.99677      0.43397      0.99927  1.0000
  O2          0.43331      0.99445      0.66495  1.0000
  O2          0.43016      0.40478      0.84631  1.0000
  O2          0.96230      0.55713      0.51556  1.0000
  O2          0.58787      0.02331      0.18042  1.0000
  O2          0.56992      0.13993      0.25547  1.0000
  O2          0.84703      0.42254      0.59098  1.0000
  O2          0.56799      0.42078      0.92009  1.0000
  O2          0.42043      0.84562      0.73461  1.0000
  O2          0.14755      0.56986      0.06824  1.0000
  O2          0.41689      0.56843      0.40154  1.0000
  F           0.43578      0.85183      0.25513  1.0000
  F           0.13581      0.57653      0.58944  1.0000
  F           0.41250      0.55380      0.92080  1.0000
  F           0.57660      0.13683      0.73511  1.0000
  F           0.84747      0.42764      0.07166  1.0000
  F           0.56037      0.41172      0.40558  1.0000
