data_cif

_audit_creation_method             'generated by GULP'

_symmetry_space_group_name_H-M     'P 1'
_symmetry_Int_Tables_number        1
_symmetry_cell_setting             triclinic

_cell_length_a                       12.0270
_cell_length_b                       12.0413
_cell_length_c                       29.5446
_cell_angle_alpha                   90.1066
_cell_angle_beta                    89.9451
_cell_angle_gamma                  119.9913

loop_
_atom_site_label
_atom_site_fract_x
_atom_site_fract_y
_atom_site_fract_z
_atom_site_occupancy
  Ge          0.69960      0.37570      0.03389  1.0000
  Ge          0.62201      0.31900      0.36869  1.0000
  Si          0.67987      0.30310      0.70090  1.0000
  Ge          0.29073      0.61368      0.54757  1.0000
  Ge          0.38594      0.67532      0.88004  1.0000
  Ge          0.32225      0.70613      0.21388  1.0000
  Si          0.37230      0.69384      0.31226  1.0000
  Si          0.32467      0.62423      0.97852  1.0000
  Si          0.30661      0.67822      0.64589  1.0000
  Ge          0.61690      0.29005      0.79908  1.0000
  Ge          0.67685      0.37972      0.46742  1.0000
  Ge          0.70349      0.32060      0.13275  1.0000
  Si          0.53771      0.42028      0.96254  1.0000
  Si          0.57727      0.11097      0.29790  1.0000
  Si          0.88937      0.46376      0.63311  1.0000
  Si          0.47756      0.58038      0.48429  1.0000
  Si          0.41905      0.89715      0.81811  1.0000
  Si          0.10264      0.51785      0.15088  1.0000
  Si          0.42027      0.53397      0.38113  1.0000
  Si          0.11662      0.57591      0.04774  1.0000
  Si          0.46513      0.88641      0.71481  1.0000
  Si          0.58233      0.48045      0.85927  1.0000
  Si          0.89944      0.41648      0.52994  1.0000
  Si          0.51721      0.09709      0.19469  1.0000
  Si          0.29472      0.40877      0.85071  1.0000
  Si          0.58950      0.88200      0.18503  1.0000
  Si          0.11312      0.70394      0.51992  1.0000
  Si          0.70428      0.60637      0.36120  1.0000
  Si          0.39427      0.09737      0.69527  1.0000
  Si          0.90481      0.29257      0.02747  1.0000
  Si          0.40625      0.29272      0.49315  1.0000
  Si          0.88653      0.59035      0.15929  1.0000
  Si          0.70698      0.11309      0.82705  1.0000
  Si          0.61091      0.70184      0.98357  1.0000
  Si          0.10050      0.39292      0.65219  1.0000
  Si          0.29517      0.90239      0.31819  1.0000
  Si          0.25566      0.34504      0.95336  1.0000
  Si          0.65209      0.90436      0.28779  1.0000
  Si          0.09315      0.74531      0.62294  1.0000
  Si          0.75962      0.66158      0.46368  1.0000
  Si          0.33687      0.09721      0.79771  1.0000
  Si          0.90178      0.23631      0.12996  1.0000
  Si          0.33852      0.24985      0.39058  1.0000
  Si          0.91420      0.65827      0.05673  1.0000
  Si          0.74763      0.09096      0.72414  1.0000
  Si          0.66598      0.76196      0.88105  1.0000
  Si          0.09923      0.33355      0.54989  1.0000
  Si          0.23496      0.89872      0.21575  1.0000
  Si          0.98415      0.12188      0.97378  1.0000
  Si          0.87480      0.85521      0.30733  1.0000
  Si          0.14513      0.01926      0.64145  1.0000
  Si          0.03451      0.87919      0.47234  1.0000
  Si          0.11824      0.15330      0.80490  1.0000
  Si          0.84429      0.96120      0.13819  1.0000
  Si          0.11870      0.97627      0.37139  1.0000
  Si          0.86099      0.87807      0.03737  1.0000
  Si          0.02176      0.14248      0.70437  1.0000
  Si          0.88448      0.03611      0.87331  1.0000
  Si          0.15342      0.11399      0.54048  1.0000
  Si          0.96084      0.84357      0.20646  1.0000
  O2          0.94699      0.99984      0.00558  1.0000
  O2          0.99799      0.93977      0.33884  1.0000
  O2          0.05821      0.05773      0.67185  1.0000
  O2          0.08550      0.99920      0.50532  1.0000
  O2          0.00086      0.08729      0.83886  1.0000
  O2          0.91243      0.91039      0.17158  1.0000
  O2          0.34655      0.59121      0.35228  1.0000
  O2          0.40981      0.75602      0.68567  1.0000
  O2          0.24810      0.64927      0.01903  1.0000
  O3          0.65656      0.43573      0.82751  1.0000
  O3          0.56169      0.21668      0.16366  1.0000
  O3          0.77921      0.34147      0.49913  1.0000
  O3          0.58981      0.34383      0.99032  1.0000
  O2          0.75773      0.40708      0.66137  1.0000
  O3          0.65428      0.23924      0.32584  1.0000
  O3          0.43375      0.65367      0.51675  1.0000
  O3          0.21897      0.56196      0.18369  1.0000
  O3          0.34569      0.77954      0.85026  1.0000
  O2          0.13785      0.21533      0.97478  1.0000
  O2          0.78152      0.91556      0.30925  1.0000
  O2          0.08582      0.86580      0.64438  1.0000
  O2          0.88217      0.79573      0.48051  1.0000
  O2          0.20087      0.08374      0.81315  1.0000
  O2          0.91240      0.11326      0.14667  1.0000
  O2          0.20580      0.13042      0.37114  1.0000
  O2          0.92826      0.79111      0.03731  1.0000
  O2          0.86800      0.08326      0.70257  1.0000
  O2          0.80220      0.88380      0.86558  1.0000
  O2          0.08270      0.19633      0.53464  1.0000
  O2          0.11384      0.91418      0.20018  1.0000
  O2          0.92408      0.86129      0.25686  1.0000
  O2          0.13774      0.05849      0.59058  1.0000
  O2          0.93800      0.06943      0.92383  1.0000
  O2          0.06518      0.13170      0.75420  1.0000
  O2          0.86260      0.93017      0.08710  1.0000
  O2          0.06574      0.92681      0.42108  1.0000
  O2          0.91797      0.20271      0.98945  1.0000
  O2          0.79426      0.70832      0.32300  1.0000
  O2          0.29335      0.08895      0.65704  1.0000
  O2          0.10312      0.79649      0.48244  1.0000
  O2          0.20192      0.30550      0.81322  1.0000
  O2          0.69233      0.89182      0.14751  1.0000
  O2          0.20312      0.91228      0.35627  1.0000
  O2          0.71323      0.79399      0.02151  1.0000
  O2          0.09143      0.29176      0.69026  1.0000
  O2          0.79931      0.10294      0.86465  1.0000
  O2          0.30485      0.20048      0.53103  1.0000
  O2          0.89554      0.69199      0.19719  1.0000
  O3          0.30923      0.62146      0.26647  1.0000
  O3          0.37742      0.68749      0.59974  1.0000
  O3          0.31480      0.68781      0.93300  1.0000
  O3          0.69040      0.37516      0.74669  1.0000
  O1          0.61704      0.30795      0.08207  1.0000
  O1          0.69046      0.30579      0.41699  1.0000
  O2          0.38277      0.34142      0.96778  1.0000
  O2          0.65616      0.03490      0.30268  1.0000
  O2          0.96232      0.61851      0.63848  1.0000
  O2          0.63406      0.66484      0.48119  1.0000
  O2          0.33340      0.96811      0.81510  1.0000
  O2          0.03060      0.36150      0.14775  1.0000
  O2          0.33749      0.37925      0.37609  1.0000
  O2          0.04499      0.65903      0.04265  1.0000
  O2          0.62004      0.95961      0.70938  1.0000
  O2          0.66790      0.63689      0.86200  1.0000
  O2          0.97101      0.33163      0.53215  1.0000
  O2          0.36060      0.02530      0.19694  1.0000
  O3          0.77899      0.29614      0.01384  1.0000
  O3          0.70117      0.47695      0.34800  1.0000
  O2          0.52994      0.22368      0.68332  1.0000
  O3          0.24833      0.71277      0.51457  1.0000
  O3          0.28579      0.53510      0.84631  1.0000
  O3          0.46258      0.74731      0.18010  1.0000
  O2          0.30370      0.77524      0.32972  1.0000
  O2          0.47494      0.69257      0.99567  1.0000
  O2          0.22771      0.52852      0.66344  1.0000
  O3          0.71629      0.24848      0.83224  1.0000
  O3          0.53264      0.28371      0.49870  1.0000
  O3          0.75075      0.46423      0.16445  1.0000
  O3          0.79309      0.54328      0.03286  1.0000
  O3          0.45414      0.24378      0.36713  1.0000
  O2          0.74562      0.21232      0.70236  1.0000
  O3          0.22746      0.44774      0.53020  1.0000
  O3          0.55145      0.77724      0.86243  1.0000
  O3          0.21932      0.76896      0.19684  1.0000
  O2          0.52895      0.78237      0.30971  1.0000
  O2          0.25656      0.46775      0.97565  1.0000
  O2          0.21567      0.74370      0.64397  1.0000
  O3          0.45157      0.22498      0.81741  1.0000
  O3          0.77146      0.54566      0.48311  1.0000
  O3          0.77392      0.22535      0.14905  1.0000
  O2          0.23655      0.33673      0.89927  1.0000
  O2          0.66074      0.89438      0.23367  1.0000
  O2          0.09984      0.76157      0.56874  1.0000
  O2          0.77362      0.66910      0.40858  1.0000
  O2          0.33232      0.10618      0.74231  1.0000
  O2          0.89671      0.22296      0.07484  1.0000
  O2          0.33383      0.23402      0.44492  1.0000
  O2          0.90138      0.66266      0.11103  1.0000
  O2          0.76526      0.09988      0.77828  1.0000
  O2          0.67186      0.77243      0.93647  1.0000
  O2          0.10770      0.32960      0.60522  1.0000
  O2          0.22459      0.89396      0.27115  1.0000
  O2          0.59557      0.56114      0.98576  1.0000
  O2          0.43618      0.02732      0.32089  1.0000
  O2          0.97537      0.40880      0.65501  1.0000
  O2          0.43795      0.43798      0.50205  1.0000
  O2          0.56189      0.99847      0.83637  1.0000
  O2          0.99953      0.55779      0.16836  1.0000
  O2          0.56086      0.58621      0.35938  1.0000
  O2          0.02835      0.43560      0.02587  1.0000
  O2          0.40913      0.97161      0.69298  1.0000
  O2          0.43961      0.43878      0.84073  1.0000
  O2          0.99785      0.55888      0.51055  1.0000
  O2          0.56098      0.99802      0.17562  1.0000
  O2          0.57076      0.14395      0.24585  1.0000
  O2          0.85354      0.42480      0.58123  1.0000
  O2          0.57626      0.42656      0.91033  1.0000
  O2          0.42594      0.84964      0.76670  1.0000
  O2          0.15229      0.57245      0.09978  1.0000
  O2          0.42305      0.57387      0.43307  1.0000
  F           0.41679      0.85584      0.24619  1.0000
  F           0.14205      0.55781      0.58051  1.0000
  F           0.44147      0.58054      0.91188  1.0000
  F           0.56098      0.14085      0.76621  1.0000
  F           0.85210      0.41574      0.09574  1.0000
  F           0.58091      0.43165      0.42965  1.0000
