data_cif

_audit_creation_method             'generated by GULP'

_symmetry_space_group_name_H-M     'P 1'
_symmetry_Int_Tables_number        1
_symmetry_cell_setting             triclinic

_cell_length_a                       12.0327
_cell_length_b                       12.0748
_cell_length_c                       29.5914
_cell_angle_alpha                   89.9599
_cell_angle_beta                    90.0282
_cell_angle_gamma                  119.9435

loop_
_atom_site_label
_atom_site_fract_x
_atom_site_fract_y
_atom_site_fract_z
_atom_site_occupancy
  Ge          0.69960      0.37570      0.03389  1.0000
  Ge          0.58210      0.29178      0.36667  1.0000
  Ge          0.66089      0.24916      0.69825  1.0000
  Ge          0.26493      0.57267      0.53244  1.0000
  Ge          0.38184      0.65889      0.86656  1.0000
  Ge          0.30473      0.69871      0.19990  1.0000
  Si          0.33847      0.65312      0.29696  1.0000
  Si          0.30819      0.61919      0.96462  1.0000
  Ge          0.29623      0.64561      0.63099  1.0000
  Si          0.63183      0.29852      0.79518  1.0000
  Si          0.65681      0.32930      0.46395  1.0000
  Ge          0.66867      0.30186      0.13227  1.0000
  Si          0.52621      0.41479      0.96577  1.0000
  Si          0.54277      0.07459      0.30198  1.0000
  Si          0.87540      0.42813      0.63179  1.0000
  Si          0.43764      0.53204      0.46421  1.0000
  Si          0.42229      0.87681      0.80176  1.0000
  Si          0.09073      0.52066      0.13294  1.0000
  Si          0.38411      0.48214      0.36101  1.0000
  Si          0.09392      0.57452      0.02992  1.0000
  Si          0.46706      0.86046      0.69859  1.0000
  Ge          0.57721      0.46468      0.86091  1.0000
  Si          0.87167      0.37417      0.52878  1.0000
  Si          0.49515      0.08672      0.19888  1.0000
  Si          0.28851      0.38836      0.84231  1.0000
  Si          0.57628      0.88334      0.17812  1.0000
  Si          0.07894      0.65929      0.51055  1.0000
  Si          0.67027      0.56089      0.34307  1.0000
  Si          0.38860      0.06590      0.67776  1.0000
  Si          0.88569      0.28951      0.01182  1.0000
  Si          0.37188      0.24879      0.47499  1.0000
  Si          0.87232      0.58827      0.14381  1.0000
  Si          0.70777      0.09271      0.80953  1.0000
  Si          0.59289      0.69983      0.97558  1.0000
  Si          0.09256      0.35922      0.64302  1.0000
  Si          0.25877      0.85625      0.31102  1.0000
  Si          0.24527      0.33916      0.94592  1.0000
  Si          0.62008      0.87355      0.28110  1.0000
  Si          0.07515      0.70909      0.61331  1.0000
  Si          0.71857      0.60949      0.44605  1.0000
  Si          0.34798      0.08101      0.78078  1.0000
  Si          0.89041      0.23968      0.11464  1.0000
  Si          0.30104      0.19860      0.37284  1.0000
  Si          0.89251      0.65748      0.04163  1.0000
  Si          0.75218      0.06151      0.70805  1.0000
  Si          0.66357      0.75271      0.87323  1.0000
  Si          0.07260      0.29094      0.54079  1.0000
  Si          0.21099      0.88437      0.20937  1.0000
  Si          0.97071      0.12043      0.96241  1.0000
  Si          0.83870      0.81649      0.29551  1.0000
  Si          0.13328      0.98323      0.62806  1.0000
  Si          0.99357      0.82891      0.46199  1.0000
  Si          0.12429      0.13328      0.79509  1.0000
  Si          0.83151      0.96518      0.12850  1.0000
  Si          0.07863      0.92521      0.36130  1.0000
  Si          0.84109      0.87921      0.02745  1.0000
  Si          0.02326      0.11064      0.69455  1.0000
  Si          0.88732      0.02638      0.86129  1.0000
  Si          0.12406      0.06948      0.52702  1.0000
  Si          0.94012      0.83620      0.19519  1.0000
  O2          0.92559      0.00073      0.99577  1.0000
  O2          0.95772      0.88712      0.32925  1.0000
  O2          0.06159      0.03000      0.66181  1.0000
  O2          0.03866      0.94668      0.49612  1.0000
  O2          0.00742      0.05843      0.82952  1.0000
  O2          0.90238      0.91638      0.16188  1.0000
  O2          0.30906      0.53831      0.33205  1.0000
  O3          0.41412      0.73049      0.67116  1.0000
  O2          0.22470      0.64846      0.00070  1.0000
  O3          0.66366      0.41209      0.82953  1.0000
  O3          0.54848      0.21689      0.17160  1.0000
  O2          0.73997      0.29984      0.50017  1.0000
  O3          0.56510      0.33982      0.99888  1.0000
  O3          0.75568      0.38275      0.66250  1.0000
  O3          0.61968      0.19164      0.33359  1.0000
  O3          0.39561      0.60816      0.49527  1.0000
  O3          0.20959      0.56515      0.16418  1.0000
  O3          0.34486      0.76069      0.83379  1.0000
  O2          0.12358      0.21305      0.96745  1.0000
  O2          0.74546      0.87525      0.30228  1.0000
  O2          0.06480      0.83021      0.63222  1.0000
  O2          0.84069      0.73627      0.46699  1.0000
  O2          0.22379      0.08184      0.80191  1.0000
  O2          0.90073      0.11816      0.13325  1.0000
  O2          0.16466      0.07826      0.35709  1.0000
  O2          0.90833      0.79278      0.02455  1.0000
  O2          0.86935      0.03994      0.69234  1.0000
  O2          0.79891      0.87436      0.85798  1.0000
  O2          0.05693      0.15588      0.52366  1.0000
  O2          0.09405      0.90655      0.19387  1.0000
  O2          0.89054      0.84021      0.24485  1.0000
  O2          0.12133      0.02373      0.57775  1.0000
  O2          0.93655      0.06925      0.91184  1.0000
  O2          0.07095      0.10604      0.74457  1.0000
  O2          0.84425      0.92676      0.07794  1.0000
  O2          0.02870      0.88418      0.41185  1.0000
  O2          0.90092      0.20068      0.97419  1.0000
  O2          0.75894      0.66553      0.30551  1.0000
  O2          0.28261      0.04708      0.64033  1.0000
  O2          0.06300      0.74770      0.47282  1.0000
  O2          0.19463      0.28411      0.80532  1.0000
  O2          0.68193      0.90198      0.14051  1.0000
  O2          0.15996      0.85610      0.34855  1.0000
  O2          0.69192      0.79758      0.01305  1.0000
  O2          0.08606      0.25866      0.68078  1.0000
  O2          0.80808      0.09657      0.84721  1.0000
  O2          0.27301      0.15019      0.51233  1.0000
  O2          0.87838      0.68835      0.18158  1.0000
  O3          0.28643      0.59793      0.24812  1.0000
  O1          0.36388      0.65485      0.57964  1.0000
  O3          0.30332      0.67290      0.91626  1.0000
  O3          0.68088      0.35136      0.74574  1.0000
  O1          0.60127      0.29211      0.08097  1.0000
  O3          0.66349      0.27621      0.41577  1.0000
  O2          0.36971      0.33474      0.96227  1.0000
  O2          0.62449      0.00003      0.29987  1.0000
  O2          0.94620      0.58375      0.62940  1.0000
  O2          0.59414      0.61329      0.46300  1.0000
  O2          0.34291      0.95393      0.79961  1.0000
  O2          0.02007      0.36502      0.13026  1.0000
  O2          0.29889      0.32750      0.35710  1.0000
  O2          0.02212      0.65743      0.02519  1.0000
  O2          0.62206      0.93148      0.69366  1.0000
  O3          0.67093      0.62968      0.85698  1.0000
  O2          0.94343      0.29125      0.52400  1.0000
  O2          0.34018      0.01474      0.19446  1.0000
  O3          0.75669      0.28894      0.00110  1.0000
  O3          0.67383      0.43407      0.33320  1.0000
  O3          0.51613      0.19367      0.66559  1.0000
  O3          0.20842      0.66079      0.50012  1.0000
  O3          0.28684      0.51709      0.83357  1.0000
  O3          0.44916      0.75400      0.16697  1.0000
  O2          0.26072      0.72351      0.31631  1.0000
  O2          0.45716      0.69554      0.98281  1.0000
  O3          0.22634      0.48683      0.65037  1.0000
  O2          0.70810      0.22620      0.81398  1.0000
  O2          0.50727      0.25219      0.48200  1.0000
  O3          0.73878      0.46080      0.15144  1.0000
  O3          0.76783      0.54357      0.02029  1.0000
  O3          0.41474      0.18902      0.35069  1.0000
  O3          0.76435      0.18425      0.68441  1.0000
  O3          0.19766      0.40481      0.51960  1.0000
  O3          0.54829      0.76154      0.85128  1.0000
  O3          0.19942      0.76176      0.18596  1.0000
  O2          0.49411      0.74661      0.29857  1.0000
  O2          0.24603      0.46422      0.96533  1.0000
  O3          0.19953      0.71538      0.63458  1.0000
  O2          0.47483      0.20744      0.79824  1.0000
  O2          0.71895      0.48466      0.46515  1.0000
  O3          0.76681      0.23375      0.13647  1.0000
  O2          0.22814      0.32594      0.89172  1.0000
  O2          0.63692      0.87698      0.22681  1.0000
  O2          0.08232      0.72514      0.55886  1.0000
  O2          0.73510      0.62356      0.39177  1.0000
  O2          0.33056      0.07645      0.72648  1.0000
  O2          0.88119      0.22332      0.06019  1.0000
  O2          0.30184      0.18572      0.42779  1.0000
  O2          0.88419      0.66083      0.09649  1.0000
  O2          0.76836      0.07865      0.76278  1.0000
  O2          0.66105      0.76335      0.92835  1.0000
  O2          0.08010      0.28695      0.59566  1.0000
  O2          0.19623      0.86684      0.26416  1.0000
  O2          0.57167      0.55930      0.98279  1.0000
  O2          0.39979      0.97386      0.32014  1.0000
  O2          0.97948      0.39152      0.65083  1.0000
  O2          0.39295      0.38921      0.48287  1.0000
  O2          0.56644      0.97617      0.81939  1.0000
  O2          0.98613      0.55694      0.15151  1.0000
  O2          0.52497      0.53764      0.33880  1.0000
  O2          0.00859      0.43345      0.00852  1.0000
  O2          0.40801      0.94171      0.67512  1.0000
  O3          0.42914      0.40507      0.83547  1.0000
  O2          0.95685      0.51494      0.50707  1.0000
  O2          0.55421      0.00588      0.17502  1.0000
  O2          0.53642      0.12057      0.25095  1.0000
  O2          0.83271      0.37510      0.58052  1.0000
  O3          0.57874      0.41756      0.91542  1.0000
  O2          0.42681      0.82819      0.75087  1.0000
  O2          0.13411      0.57415      0.08163  1.0000
  O2          0.38736      0.52473      0.41264  1.0000
  F           0.39186      0.83745      0.23721  1.0000
  F           0.12552      0.52332      0.57194  1.0000
  F           0.43729      0.56609      0.90083  1.0000
  F           0.57334      0.11132      0.73627  1.0000
  F           0.83945      0.42543      0.07315  1.0000
  F           0.52842      0.38005      0.40243  1.0000
