data_cif

_audit_creation_method             'generated by GULP'

_symmetry_space_group_name_H-M     'P 1'
_symmetry_Int_Tables_number        1
_symmetry_cell_setting             triclinic

_cell_length_a                       12.0433
_cell_length_b                       12.0529
_cell_length_c                       29.5796
_cell_angle_alpha                   89.9119
_cell_angle_beta                    90.1925
_cell_angle_gamma                  120.0744

loop_
_atom_site_label
_atom_site_fract_x
_atom_site_fract_y
_atom_site_fract_z
_atom_site_occupancy
  Ge          0.69960      0.37570      0.03389  1.0000
  Si          0.62652      0.31621      0.36568  1.0000
  Ge          0.67478      0.29477      0.69937  1.0000
  Ge          0.29574      0.61354      0.54432  1.0000
  Ge          0.38525      0.67550      0.87980  1.0000
  Ge          0.32598      0.70705      0.21215  1.0000
  Si          0.37445      0.69006      0.31023  1.0000
  Si          0.32402      0.62486      0.97803  1.0000
  Ge          0.29788      0.67189      0.64322  1.0000
  Ge          0.61791      0.29471      0.79818  1.0000
  Ge          0.67553      0.38040      0.46369  1.0000
  Ge          0.70590      0.32102      0.13257  1.0000
  Si          0.53684      0.42127      0.96300  1.0000
  Si          0.57755      0.10659      0.29817  1.0000
  Si          0.88145      0.45798      0.62803  1.0000
  Si          0.48115      0.57762      0.48135  1.0000
  Si          0.41746      0.89703      0.81811  1.0000
  Si          0.10484      0.51951      0.14951  1.0000
  Si          0.42405      0.53009      0.37825  1.0000
  Si          0.11587      0.57693      0.04648  1.0000
  Si          0.46034      0.87866      0.71508  1.0000
  Si          0.58192      0.48181      0.85990  1.0000
  Si          0.89837      0.41394      0.52501  1.0000
  Si          0.52068      0.09827      0.19509  1.0000
  Si          0.29404      0.40882      0.85062  1.0000
  Si          0.59397      0.88457      0.18488  1.0000
  Si          0.11447      0.70162      0.51674  1.0000
  Si          0.70600      0.60126      0.35926  1.0000
  Si          0.38585      0.08720      0.69348  1.0000
  Si          0.90458      0.29322      0.02650  1.0000
  Si          0.40792      0.29005      0.49123  1.0000
  Si          0.88918      0.59143      0.15835  1.0000
  Si          0.70575      0.11361      0.82607  1.0000
  Si          0.61001      0.70281      0.98349  1.0000
  Si          0.08994      0.38321      0.64951  1.0000
  Si          0.29542      0.89586      0.31704  1.0000
  Si          0.25501      0.34580      0.95328  1.0000
  Si          0.65525      0.90310      0.28782  1.0000
  Si          0.08598      0.74212      0.61894  1.0000
  Si          0.76381      0.66027      0.46152  1.0000
  Si          0.33556      0.09587      0.79598  1.0000
  Si          0.90443      0.23771      0.12889  1.0000
  Si          0.34621      0.24838      0.38831  1.0000
  Si          0.91400      0.65905      0.05586  1.0000
  Si          0.74498      0.08340      0.72389  1.0000
  Si          0.66541      0.76358      0.88112  1.0000
  Si          0.09690      0.33149      0.54703  1.0000
  Si          0.23787      0.89858      0.21481  1.0000
  Si          0.98338      0.12295      0.97291  1.0000
  Si          0.87728      0.85089      0.30640  1.0000
  Si          0.13587      0.01263      0.63904  1.0000
  Si          0.03825      0.87953      0.47032  1.0000
  Si          0.11839      0.15384      0.80404  1.0000
  Si          0.84785      0.96324      0.13754  1.0000
  Si          0.12410      0.97413      0.36955  1.0000
  Si          0.86067      0.87899      0.03674  1.0000
  Si          0.01555      0.13336      0.70357  1.0000
  Si          0.88440      0.03798      0.87227  1.0000
  Si          0.15405      0.11410      0.53846  1.0000
  Si          0.96413      0.84443      0.20555  1.0000
  O2          0.94510      0.00011      0.00448  1.0000
  O2          0.00106      0.93598      0.33779  1.0000
  O2          0.05145      0.04923      0.67107  1.0000
  O2          0.08639      0.99492      0.50512  1.0000
  O2          0.99906      0.08665      0.83721  1.0000
  O2          0.91671      0.91261      0.17077  1.0000
  O2          0.34866      0.58546      0.34944  1.0000
  O3          0.40659      0.74972      0.68724  1.0000
  O2          0.24735      0.65047      0.01805  1.0000
  O3          0.65625      0.43728      0.82863  1.0000
  O3          0.56577      0.21862      0.16447  1.0000
  O3          0.78051      0.34046      0.49278  1.0000
  O3          0.58820      0.34425      0.99089  1.0000
  O3          0.75211      0.40363      0.65548  1.0000
  O2          0.65280      0.23781      0.32658  1.0000
  O3          0.43653      0.65190      0.51253  1.0000
  O3          0.22263      0.56384      0.18169  1.0000
  O3          0.34485      0.78050      0.85079  1.0000
  O2          0.13701      0.21634      0.97473  1.0000
  O2          0.78285      0.90981      0.30927  1.0000
  O2          0.06788      0.85863      0.63802  1.0000
  O2          0.88545      0.79671      0.47693  1.0000
  O2          0.20243      0.08608      0.81283  1.0000
  O2          0.91642      0.11541      0.14559  1.0000
  O2          0.21854      0.12764      0.36678  1.0000
  O2          0.92737      0.79168      0.03647  1.0000
  O2          0.86144      0.06520      0.70477  1.0000
  O2          0.80136      0.88533      0.86555  1.0000
  O2          0.08551      0.19761      0.53026  1.0000
  O2          0.11710      0.91493      0.19950  1.0000
  O2          0.92608      0.86074      0.25581  1.0000
  O2          0.13699      0.06604      0.58958  1.0000
  O2          0.93990      0.07300      0.92257  1.0000
  O2          0.07014      0.13414      0.75281  1.0000
  O2          0.86429      0.93144      0.08646  1.0000
  O2          0.07407      0.93447      0.41998  1.0000
  O2          0.91690      0.20333      0.98847  1.0000
  O2          0.79833      0.70202      0.32106  1.0000
  O2          0.28165      0.07259      0.65568  1.0000
  O2          0.10503      0.79446      0.47902  1.0000
  O2          0.20086      0.30587      0.81316  1.0000
  O2          0.69651      0.89474      0.14749  1.0000
  O2          0.20311      0.90418      0.35516  1.0000
  O2          0.71235      0.79487      0.02147  1.0000
  O2          0.07536      0.27924      0.68725  1.0000
  O2          0.79889      0.10458      0.86385  1.0000
  O2          0.30559      0.19749      0.52870  1.0000
  O2          0.89863      0.69314      0.19608  1.0000
  O3          0.31299      0.61991      0.26409  1.0000
  O1          0.38125      0.68537      0.59534  1.0000
  O3          0.31366      0.68757      0.93243  1.0000
  O1          0.68958      0.37906      0.74707  1.0000
  O1          0.61815      0.30737      0.08216  1.0000
  O3          0.68763      0.30641      0.41168  1.0000
  O2          0.38189      0.34199      0.96781  1.0000
  O2          0.65934      0.03370      0.30345  1.0000
  O2          0.95652      0.61272      0.63308  1.0000
  O2          0.63772      0.66256      0.47893  1.0000
  O2          0.33296      0.96882      0.81496  1.0000
  O2          0.03297      0.36323      0.14658  1.0000
  O2          0.34213      0.37530      0.37307  1.0000
  O2          0.04421      0.65985      0.04133  1.0000
  O2          0.61520      0.95354      0.71016  1.0000
  O2          0.66667      0.63830      0.86224  1.0000
  O2          0.97003      0.32939      0.52797  1.0000
  O2          0.36422      0.02676      0.19728  1.0000
  O3          0.77816      0.29629      0.01339  1.0000
  O2          0.69734      0.46580      0.34792  1.0000
  O3          0.51557      0.21272      0.67951  1.0000
  O3          0.24984      0.71049      0.51220  1.0000
  O3          0.28605      0.53558      0.84586  1.0000
  O3          0.46745      0.74975      0.17926  1.0000
  O2          0.30374      0.76862      0.32807  1.0000
  O2          0.47431      0.69380      0.99529  1.0000
  O3          0.21606      0.51306      0.66315  1.0000
  O3          0.71468      0.24901      0.83056  1.0000
  O3          0.53445      0.28174      0.49681  1.0000
  O3          0.75380      0.46513      0.16380  1.0000
  O3          0.79222      0.54338      0.03253  1.0000
  O2          0.47005      0.25065      0.36699  1.0000
  O3          0.75184      0.20415      0.69937  1.0000
  O3          0.22631      0.44773      0.52872  1.0000
  O3          0.55069      0.77838      0.86238  1.0000
  O3          0.22369      0.77068      0.19493  1.0000
  O2          0.53093      0.78079      0.30872  1.0000
  O2          0.25634      0.46843      0.97553  1.0000
  O3          0.20769      0.74941      0.64300  1.0000
  O3          0.45240      0.22511      0.81420  1.0000
  O3          0.77730      0.54601      0.48134  1.0000
  O3          0.77670      0.22588      0.14820  1.0000
  O2          0.23564      0.33767      0.89924  1.0000
  O2          0.66471      0.89688      0.23367  1.0000
  O2          0.09943      0.75960      0.56474  1.0000
  O2          0.77656      0.66439      0.40620  1.0000
  O2          0.32602      0.09717      0.74088  1.0000
  O2          0.89827      0.22418      0.07385  1.0000
  O2          0.33721      0.23161      0.44243  1.0000
  O2          0.90320      0.66373      0.11015  1.0000
  O2          0.76364      0.09859      0.77804  1.0000
  O2          0.67139      0.77354      0.93648  1.0000
  O2          0.09884      0.32260      0.60210  1.0000
  O2          0.22522      0.88947      0.27009  1.0000
  O2          0.59428      0.56209      0.98604  1.0000
  O2          0.43658      0.02070      0.32003  1.0000
  O2          0.96694      0.40324      0.65108  1.0000
  O2          0.43740      0.43486      0.50027  1.0000
  O2          0.56050      0.00053      0.83555  1.0000
  O2          0.00244      0.55935      0.16743  1.0000
  O2          0.56507      0.58546      0.35644  1.0000
  O2          0.02749      0.43667      0.02462  1.0000
  O2          0.40532      0.96389      0.69207  1.0000
  O2          0.43869      0.43797      0.84115  1.0000
  O2          0.00126      0.55637      0.50711  1.0000
  O2          0.56459      0.00002      0.17571  1.0000
  O2          0.57460      0.14324      0.24644  1.0000
  O2          0.84946      0.41944      0.57578  1.0000
  O2          0.57608      0.42826      0.91098  1.0000
  O2          0.42177      0.84686      0.76732  1.0000
  O2          0.15241      0.57383      0.09840  1.0000
  O2          0.42713      0.56980      0.42997  1.0000
  F           0.41897      0.85518      0.24536  1.0000
  F           0.14649      0.56117      0.58059  1.0000
  F           0.44108      0.58129      0.91179  1.0000
  F           0.56485      0.14486      0.76204  1.0000
  F           0.85355      0.41665      0.09503  1.0000
  F           0.58259      0.43604      0.43059  1.0000
