data_cif

_audit_creation_method             'generated by GULP'

_symmetry_space_group_name_H-M     'P 1'
_symmetry_Int_Tables_number        1
_symmetry_cell_setting             triclinic

_cell_length_a                       12.0346
_cell_length_b                       12.0529
_cell_length_c                       29.5796
_cell_angle_alpha                   89.9120
_cell_angle_beta                    89.8956
_cell_angle_gamma                  120.0021

loop_
_atom_site_label
_atom_site_fract_x
_atom_site_fract_y
_atom_site_fract_z
_atom_site_occupancy
  Ge          0.69960      0.37570      0.03389  1.0000
  Ge          0.61162      0.31403      0.36828  1.0000
  Ge          0.66923      0.28595      0.70277  1.0000
  Ge          0.29159      0.61682      0.52324  1.0000
  Si          0.36816      0.67522      0.85622  1.0000
  Si          0.31773      0.68999      0.18842  1.0000
  Ge          0.37895      0.70058      0.28666  1.0000
  Ge          0.31969      0.60976      0.95431  1.0000
  Ge          0.28945      0.67303      0.62214  1.0000
  Si          0.62023      0.30113      0.80078  1.0000
  Ge          0.66849      0.37085      0.46709  1.0000
  Ge          0.69331      0.31473      0.13257  1.0000
  Si          0.51439      0.41324      0.97136  1.0000
  Si          0.57562      0.09093      0.30655  1.0000
  Si          0.89208      0.47527      0.64145  1.0000
  Si          0.45405      0.57251      0.45138  1.0000
  Si          0.41775      0.88479      0.78821  1.0000
  Si          0.10958      0.52977      0.11998  1.0000
  Si          0.41117      0.51126      0.34834  1.0000
  Si          0.09854      0.57615      0.01694  1.0000
  Si          0.47486      0.89436      0.68510  1.0000
  Si          0.57125      0.46178      0.86829  1.0000
  Si          0.87516      0.41430      0.53842  1.0000
  Si          0.53054      0.10639      0.20346  1.0000
  Si          0.28912      0.39038      0.84942  1.0000
  Si          0.60371      0.89802      0.18297  1.0000
  Si          0.08365      0.69757      0.51695  1.0000
  Si          0.69946      0.58297      0.34038  1.0000
  Si          0.40163      0.10870      0.67523  1.0000
  Si          0.88288      0.28857      0.00811  1.0000
  Si          0.37956      0.28948      0.47298  1.0000
  Si          0.89829      0.60219      0.13996  1.0000
  Si          0.69971      0.09557      0.80720  1.0000
  Si          0.58768      0.70024      0.98158  1.0000
  Si          0.10817      0.40367      0.64972  1.0000
  Si          0.28774      0.87605      0.31584  1.0000
  Si          0.23158      0.33012      0.95165  1.0000
  Si          0.65911      0.89265      0.28534  1.0000
  Si          0.09061      0.75624      0.61943  1.0000
  Si          0.73869      0.65241      0.44257  1.0000
  Si          0.33992      0.08865      0.77815  1.0000
  Si          0.90771      0.24578      0.11059  1.0000
  Si          0.32926      0.23052      0.37047  1.0000
  Si          0.89813      0.65755      0.03757  1.0000
  Si          0.75752      0.09437      0.70494  1.0000
  Si          0.64896      0.74298      0.87864  1.0000
  Si          0.07968      0.33468      0.54752  1.0000
  Si          0.24872      0.90004      0.21317  1.0000
  Si          0.95783      0.11053      0.96090  1.0000
  Si          0.87811      0.83725      0.29418  1.0000
  Si          0.14776      0.03078      0.62799  1.0000
  Si          0.00925      0.87301      0.46288  1.0000
  Si          0.11781      0.14079      0.79691  1.0000
  Si          0.85438      0.97251      0.12972  1.0000
  Si          0.11209      0.95537      0.36242  1.0000
  Si          0.84155      0.87544      0.02892  1.0000
  Si          0.03196      0.14954      0.69614  1.0000
  Si          0.87099      0.01722      0.86006  1.0000
  Si          0.12957      0.11406      0.52742  1.0000
  Si          0.97708      0.85125      0.19355  1.0000
  O2          0.91041      0.99492      0.99569  1.0000
  O2          0.99277      0.90324      0.32925  1.0000
  O2          0.08009      0.08230      0.66133  1.0000
  O2          0.04516      0.99305      0.49539  1.0000
  O2          0.99476      0.05591      0.82867  1.0000
  O2          0.93881      0.93582      0.16197  1.0000
  O3          0.33856      0.55518      0.31567  1.0000
  O3          0.43024      0.77546      0.65393  1.0000
  O3          0.21633      0.64961      0.98477  1.0000
  O2          0.64651      0.40582      0.83988  1.0000
  O3          0.58191      0.23478      0.17557  1.0000
  O3          0.74582      0.33931      0.51098  1.0000
  O3          0.55947      0.33798      0.00199  1.0000
  O3          0.77422      0.43088      0.67368  1.0000
  O3          0.64995      0.20979      0.33783  1.0000
  O3          0.40029      0.64770      0.47922  1.0000
  O2          0.24106      0.58771      0.14840  1.0000
  O2          0.34237      0.75402      0.81702  1.0000
  O2          0.11080      0.19300      0.96696  1.0000
  O2          0.79507      0.90685      0.30091  1.0000
  O2          0.07922      0.87873      0.63620  1.0000
  O2          0.85515      0.78707      0.46169  1.0000
  O2          0.21225      0.08173      0.79967  1.0000
  O2          0.92107      0.12652      0.12999  1.0000
  O2          0.19614      0.10717      0.35363  1.0000
  O2          0.91012      0.79183      0.02086  1.0000
  O2          0.87916      0.07957      0.68953  1.0000
  O2          0.77655      0.86387      0.85719  1.0000
  O2          0.06158      0.20007      0.52843  1.0000
  O2          0.13072      0.91150      0.19173  1.0000
  O2          0.93361      0.85773      0.24388  1.0000
  O2          0.13070      0.06178      0.57688  1.0000
  O2          0.91978      0.05617      0.91064  1.0000
  O2          0.06778      0.13043      0.74648  1.0000
  O2          0.85800      0.92367      0.08000  1.0000
  O2          0.06385      0.92682      0.41365  1.0000
  O2          0.89233      0.19632      0.97037  1.0000
  O2          0.79259      0.68514      0.30260  1.0000
  O2          0.29930      0.09893      0.63775  1.0000
  O2          0.06906      0.78694      0.47921  1.0000
  O2          0.19682      0.28976      0.81130  1.0000
  O2          0.70605      0.90831      0.14499  1.0000
  O2          0.19457      0.88583      0.35329  1.0000
  O2          0.69022      0.79260      0.01897  1.0000
  O2          0.09873      0.30139      0.68743  1.0000
  O2          0.79204      0.08713      0.84539  1.0000
  O2          0.27535      0.19989      0.51078  1.0000
  O2          0.91061      0.70440      0.17799  1.0000
  O3          0.30737      0.61691      0.23402  1.0000
  O1          0.37496      0.68671      0.57111  1.0000
  O3          0.30670      0.68390      0.90237  1.0000
  O3          0.68134      0.37205      0.75478  1.0000
  O1          0.61186      0.30161      0.08430  1.0000
  O1          0.68329      0.30135      0.41939  1.0000
  O2          0.35792      0.32829      0.96918  1.0000
  O2          0.66038      0.01920      0.30422  1.0000
  O2          0.96374      0.63146      0.63848  1.0000
  O2          0.60890      0.65249      0.45629  1.0000
  O2          0.33583      0.95765      0.79339  1.0000
  O2          0.03792      0.37518      0.12513  1.0000
  O2          0.32667      0.35497      0.35149  1.0000
  O2          0.02668      0.66056      0.01988  1.0000
  O2          0.63143      0.96599      0.68752  1.0000
  O2          0.65305      0.61646      0.86300  1.0000
  O2          0.95022      0.33463      0.53338  1.0000
  O2          0.37560      0.03073      0.19864  1.0000
  O3          0.74750      0.27949      0.00265  1.0000
  O3          0.70838      0.45650      0.33590  1.0000
  O3          0.52816      0.24354      0.66965  1.0000
  O3          0.20977      0.69383      0.50331  1.0000
  O2          0.29745      0.52594      0.83839  1.0000
  O2          0.46802      0.77134      0.17117  1.0000
  O3          0.27976      0.74130      0.32060  1.0000
  O3          0.46115      0.70853      0.98720  1.0000
  O3          0.24354      0.53017      0.65426  1.0000
  O2          0.69104      0.22237      0.81854  1.0000
  O3          0.50928      0.29368      0.48694  1.0000
  O3          0.77187      0.47270      0.15307  1.0000
  O3          0.77040      0.54164      0.01825  1.0000
  O3          0.44610      0.21811      0.35225  1.0000
  O3          0.77101      0.22212      0.68512  1.0000
  O3          0.20139      0.44911      0.52346  1.0000
  O2          0.52463      0.74097      0.85774  1.0000
  O2          0.25005      0.77874      0.19093  1.0000
  O3          0.54440      0.76314      0.30407  1.0000
  O3          0.21739      0.44383      0.97152  1.0000
  O3          0.22002      0.76940      0.63773  1.0000
  O2          0.46376      0.21023      0.79947  1.0000
  O3          0.74554      0.53852      0.46709  1.0000
  O3          0.78593      0.23967      0.13393  1.0000
  O2          0.21892      0.32657      0.89637  1.0000
  O2          0.66510      0.88868      0.22997  1.0000
  O2          0.09255      0.76706      0.56436  1.0000
  O2          0.75734      0.65587      0.38842  1.0000
  O2          0.33092      0.09643      0.72402  1.0000
  O2          0.89690      0.23029      0.05631  1.0000
  O2          0.31973      0.21967      0.42558  1.0000
  O2          0.89198      0.66491      0.09260  1.0000
  O2          0.77027      0.10300      0.76026  1.0000
  O2          0.65842      0.75866      0.93279  1.0000
  O2          0.09314      0.33066      0.60172  1.0000
  O2          0.22935      0.88880      0.26722  1.0000
  O2          0.55829      0.55540      0.99075  1.0000
  O2          0.43240      0.99155      0.32531  1.0000
  O2          0.99496      0.43571      0.65935  1.0000
  O2          0.39903      0.43225      0.47439  1.0000
  O2          0.55878      0.97044      0.81001  1.0000
  O2          0.02119      0.58165      0.14184  1.0000
  O2          0.55420      0.55080      0.33090  1.0000
  O2          0.99615      0.43392      0.99903  1.0000
  O2          0.43111      0.99336      0.66619  1.0000
  O2          0.43029      0.40671      0.84643  1.0000
  O2          0.96065      0.55453      0.51538  1.0000
  O2          0.58798      0.02302      0.18042  1.0000
  O2          0.56979      0.13865      0.25548  1.0000
  O2          0.84317      0.42085      0.59068  1.0000
  O2          0.56831      0.42219      0.92002  1.0000
  O2          0.42083      0.84815      0.73649  1.0000
  O2          0.14612      0.56941      0.06806  1.0000
  O2          0.41548      0.56573      0.39914  1.0000
  F           0.43479      0.85062      0.25467  1.0000
  F           0.14019      0.57614      0.58587  1.0000
  F           0.41268      0.55462      0.92110  1.0000
  F           0.57630      0.13738      0.73587  1.0000
  F           0.84725      0.42772      0.07142  1.0000
  F           0.55856      0.41082      0.40442  1.0000
