data_cif

_audit_creation_method             'generated by GULP'

_symmetry_space_group_name_H-M     'P 1'
_symmetry_Int_Tables_number        1
_symmetry_cell_setting             triclinic

_cell_length_a                       11.9341
_cell_length_b                       11.9294
_cell_length_c                       29.4162
_cell_angle_alpha                   89.6527
_cell_angle_beta                    90.4323
_cell_angle_gamma                  119.6212

loop_
_atom_site_label
_atom_site_fract_x
_atom_site_fract_y
_atom_site_fract_z
_atom_site_occupancy
  Si          0.69960      0.37570      0.03389  1.0000
  Si          0.61507      0.31747      0.36667  1.0000
  Si          0.67219      0.28603      0.69927  1.0000
  Si          0.29431      0.61104      0.53491  1.0000
  Ge          0.38483      0.66122      0.87099  1.0000
  Si          0.31597      0.69402      0.20216  1.0000
  Si          0.37419      0.69749      0.30283  1.0000
  Si          0.31492      0.62279      0.96922  1.0000
  Si          0.29405      0.66412      0.63570  1.0000
  Si          0.61945      0.28788      0.79960  1.0000
  Si          0.67297      0.36939      0.46739  1.0000
  Si          0.69193      0.31535      0.13444  1.0000
  Si          0.52882      0.41390      0.96659  1.0000
  Si          0.57589      0.10868      0.30084  1.0000
  Si          0.88213      0.45794      0.63452  1.0000
  Si          0.46654      0.57437      0.46987  1.0000
  Si          0.41728      0.87292      0.80336  1.0000
  Si          0.10325      0.51915      0.13883  1.0000
  Si          0.41232      0.52429      0.36810  1.0000
  Si          0.10762      0.57582      0.03721  1.0000
  Si          0.46756      0.87441      0.70058  1.0000
  Si          0.58255      0.46474      0.86338  1.0000
  Si          0.88416      0.40777      0.53265  1.0000
  Si          0.51950      0.10443      0.19898  1.0000
  Si          0.29443      0.38972      0.84755  1.0000
  Si          0.59181      0.89473      0.18569  1.0000
  Si          0.09251      0.68805      0.51905  1.0000
  Si          0.69240      0.59635      0.35283  1.0000
  Si          0.39557      0.08458      0.68499  1.0000
  Si          0.90070      0.29700      0.02026  1.0000
  Si          0.39513      0.29248      0.48311  1.0000
  Si          0.89322      0.59192      0.15112  1.0000
  Si          0.69817      0.08742      0.81508  1.0000
  Si          0.59976      0.69996      0.97995  1.0000
  Si          0.09250      0.38593      0.64966  1.0000
  Si          0.29631      0.89952      0.31597  1.0000
  Si          0.24727      0.33786      0.95095  1.0000
  Si          0.65355      0.90621      0.28646  1.0000
  Si          0.08388      0.73618      0.61982  1.0000
  Si          0.74496      0.65171      0.45371  1.0000
  Si          0.34081      0.07695      0.78562  1.0000
  Si          0.90198      0.24238      0.12126  1.0000
  Si          0.33433      0.24488      0.38225  1.0000
  Si          0.90612      0.65493      0.05041  1.0000
  Si          0.74567      0.07743      0.71429  1.0000
  Si          0.66697      0.75029      0.87752  1.0000
  Si          0.08646      0.33049      0.54878  1.0000
  Si          0.24239      0.90310      0.21509  1.0000
  Si          0.97071      0.11920      0.96852  1.0000
  Si          0.87213      0.84425      0.30187  1.0000
  Si          0.14655      0.01604      0.63417  1.0000
  Si          0.02455      0.86929      0.46806  1.0000
  Si          0.12145      0.13586      0.79969  1.0000
  Si          0.83835      0.96154      0.13500  1.0000
  Si          0.11592      0.96593      0.36712  1.0000
  Si          0.84666      0.87542      0.03344  1.0000
  Si          0.02382      0.13606      0.69940  1.0000
  Si          0.88461      0.02546      0.86680  1.0000
  Si          0.14784      0.11172      0.53319  1.0000
  Si          0.96150      0.83997      0.20079  1.0000
  O2          0.93152      0.99823      0.00172  1.0000
  O2          0.99449      0.92496      0.33413  1.0000
  O2          0.06640      0.05860      0.66611  1.0000
  O2          0.06737      0.99195      0.50001  1.0000
  O2          0.00793      0.06826      0.83578  1.0000
  O2          0.91821      0.91768      0.16719  1.0000
  O2          0.33545      0.57530      0.33607  1.0000
  O2          0.41693      0.74773      0.66857  1.0000
  O2          0.23641      0.65368      0.00714  1.0000
  O2          0.65708      0.41190      0.83218  1.0000
  O2          0.56715      0.22938      0.16595  1.0000
  O2          0.75928      0.33079      0.49974  1.0000
  O2          0.57815      0.33907      0.99988  1.0000
  O2          0.75624      0.40915      0.66635  1.0000
  O2          0.65304      0.23418      0.33297  1.0000
  O2          0.41829      0.65048      0.50267  1.0000
  O2          0.22864      0.56720      0.17136  1.0000
  O3          0.34171      0.75418      0.83553  1.0000
  O2          0.12487      0.21250      0.97281  1.0000
  O2          0.78130      0.90833      0.30675  1.0000
  O2          0.08291      0.86193      0.63999  1.0000
  O2          0.87078      0.77777      0.47385  1.0000
  O2          0.21196      0.07219      0.80572  1.0000
  O2          0.90099      0.11527      0.14147  1.0000
  O2          0.20641      0.12021      0.36231  1.0000
  O2          0.90938      0.78315      0.03003  1.0000
  O2          0.87014      0.07479      0.69366  1.0000
  O2          0.80409      0.87082      0.86203  1.0000
  O2          0.08581      0.20441      0.52813  1.0000
  O2          0.11520      0.90217      0.19471  1.0000
  O2          0.92419      0.85640      0.25123  1.0000
  O2          0.13347      0.05552      0.58334  1.0000
  O2          0.93136      0.06706      0.91808  1.0000
  O2          0.06035      0.11581      0.74998  1.0000
  O2          0.85197      0.92563      0.08393  1.0000
  O2          0.06198      0.92214      0.41729  1.0000
  O2          0.90030      0.20042      0.98152  1.0000
  O2          0.79011      0.69307      0.31439  1.0000
  O2          0.29796      0.08505      0.64627  1.0000
  O2          0.09494      0.78720      0.48032  1.0000
  O2          0.20555      0.28784      0.80924  1.0000
  O2          0.68688      0.89168      0.14695  1.0000
  O2          0.19934      0.89777      0.35462  1.0000
  O2          0.69703      0.79501      0.01868  1.0000
  O2          0.09375      0.28856      0.68834  1.0000
  O2          0.79863      0.09056      0.85348  1.0000
  O2          0.29955      0.19310      0.52134  1.0000
  O2          0.89111      0.68758      0.18972  1.0000
  O2          0.31757      0.63858      0.25267  1.0000
  O2          0.35156      0.66614      0.58537  1.0000
  O3          0.30779      0.67959      0.92130  1.0000
  O2          0.67404      0.34665      0.74919  1.0000
  O2          0.63755      0.31613      0.08339  1.0000
  O2          0.67305      0.31415      0.41674  1.0000
  O2          0.37320      0.33158      0.96828  1.0000
  O2          0.66378      0.03957      0.30378  1.0000
  O2          0.95119      0.61420      0.63762  1.0000
  O2          0.62271      0.66142      0.47244  1.0000
  O2          0.33187      0.94578      0.80378  1.0000
  O2          0.03387      0.36274      0.14069  1.0000
  O2          0.32432      0.36842      0.36427  1.0000
  O2          0.03825      0.66335      0.03274  1.0000
  O2          0.62357      0.94503      0.69623  1.0000
  O2          0.67031      0.62040      0.86240  1.0000
  O2          0.95401      0.32068      0.52986  1.0000
  O2          0.36318      0.03517      0.19591  1.0000
  O2          0.76863      0.30137      0.01138  1.0000
  O2          0.69041      0.46126      0.34458  1.0000
  O2          0.52926      0.21767      0.67623  1.0000
  O2          0.22638      0.68696      0.51193  1.0000
  O3          0.28826      0.51671      0.83890  1.0000
  O2          0.45760      0.76082      0.17870  1.0000
  O2          0.29881      0.76665      0.32423  1.0000
  O2          0.46458      0.69651      0.98789  1.0000
  O2          0.22564      0.51995      0.65757  1.0000
  O2          0.69831      0.22254      0.82217  1.0000
  O2          0.53020      0.29306      0.48981  1.0000
  O2          0.75850      0.45825      0.15700  1.0000
  O2          0.77881      0.53208      0.02989  1.0000
  O2          0.45882      0.24313      0.36202  1.0000
  O2          0.74824      0.20509      0.69444  1.0000
  O2          0.21347      0.45517      0.52954  1.0000
  O3          0.55280      0.76088      0.85514  1.0000
  O2          0.24052      0.77540      0.19621  1.0000
  O2          0.53012      0.78082      0.30708  1.0000
  O2          0.25098      0.46557      0.96991  1.0000
  O2          0.21031      0.73707      0.63999  1.0000
  O2          0.46378      0.20594      0.80543  1.0000
  O2          0.74631      0.52528      0.47259  1.0000
  O2          0.77507      0.24187      0.13990  1.0000
  O2          0.23183      0.32277      0.89657  1.0000
  O2          0.66858      0.90072      0.23204  1.0000
  O2          0.08686      0.75744      0.56539  1.0000
  O2          0.76327      0.67003      0.39928  1.0000
  O2          0.32234      0.08280      0.73127  1.0000
  O2          0.90192      0.22466      0.06681  1.0000
  O2          0.31903      0.22427      0.43660  1.0000
  O2          0.90182      0.67002      0.10480  1.0000
  O2          0.76697      0.08055      0.76871  1.0000
  O2          0.66910      0.76535      0.93285  1.0000
  O2          0.08859      0.31182      0.60318  1.0000
  O2          0.22453      0.90297      0.26946  1.0000
  O2          0.58063      0.55726      0.98606  1.0000
  O2          0.43539      0.02510      0.32405  1.0000
  O2          0.96694      0.40050      0.65779  1.0000
  O2          0.41049      0.43239      0.49246  1.0000
  O2          0.56001      0.96490      0.82515  1.0000
  O2          0.01642      0.57413      0.16127  1.0000
  O2          0.55274      0.58321      0.34434  1.0000
  O2          0.02760      0.43582      0.01289  1.0000
  O2          0.40836      0.95772      0.67730  1.0000
  O2          0.44076      0.41451      0.84232  1.0000
  O2          0.96727      0.54936      0.50960  1.0000
  O2          0.57730      0.02030      0.17610  1.0000
  O2          0.57361      0.15979      0.24959  1.0000
  O2          0.83019      0.40667      0.58332  1.0000
  O2          0.57726      0.41488      0.91538  1.0000
  O2          0.42073      0.82424      0.75176  1.0000
  O2          0.15766      0.57431      0.08844  1.0000
  O2          0.41234      0.57586      0.41908  1.0000
  F           0.44435      0.89762      0.25014  1.0000
  F           0.09234      0.53690      0.58370  1.0000
  F           0.43910      0.56983      0.90751  1.0000
  F           0.54991      0.09217      0.74954  1.0000
  F           0.89580      0.44514      0.08482  1.0000
  F           0.54317      0.44430      0.41725  1.0000
