data_cif

_audit_creation_method             'generated by GULP'

_symmetry_space_group_name_H-M     'P 1'
_symmetry_Int_Tables_number        1
_symmetry_cell_setting             triclinic

_cell_length_a                       12.0729
_cell_length_b                       12.0592
_cell_length_c                       29.6233
_cell_angle_alpha                   89.6285
_cell_angle_beta                    89.4641
_cell_angle_gamma                  120.1908

loop_
_atom_site_label
_atom_site_fract_x
_atom_site_fract_y
_atom_site_fract_z
_atom_site_occupancy
  Ge          0.69960      0.37570      0.03389  1.0000
  Ge          0.59026      0.30215      0.37087  1.0000
  Ge          0.66511      0.25588      0.70577  1.0000
  Ge          0.27922      0.58966      0.54171  1.0000
  Ge          0.38040      0.65734      0.87766  1.0000
  Ge          0.31179      0.69922      0.21038  1.0000
  Si          0.35177      0.66862      0.30781  1.0000
  Si          0.30418      0.61487      0.97571  1.0000
  Si          0.30425      0.65157      0.64015  1.0000
  Si          0.62646      0.29715      0.80324  1.0000
  Si          0.66741      0.32580      0.46730  1.0000
  Si          0.68466      0.30836      0.13690  1.0000
  Si          0.51979      0.41011      0.96914  1.0000
  Si          0.55539      0.09132      0.30333  1.0000
  Si          0.88092      0.43172      0.63753  1.0000
  Ge          0.44860      0.53310      0.47762  1.0000
  Si          0.41833      0.87391      0.81144  1.0000
  Si          0.10450      0.52160      0.14457  1.0000
  Si          0.39535      0.49724      0.37240  1.0000
  Ge          0.08458      0.56014      0.04423  1.0000
  Ge          0.46817      0.86813      0.70663  1.0000
  Si          0.57706      0.46643      0.86645  1.0000
  Ge          0.88906      0.38706      0.53260  1.0000
  Si          0.50534      0.08898      0.20024  1.0000
  Si          0.29246      0.39020      0.85066  1.0000
  Si          0.58147      0.88017      0.18482  1.0000
  Si          0.10088      0.67888      0.51602  1.0000
  Si          0.68099      0.57544      0.35155  1.0000
  Si          0.39227      0.07733      0.68413  1.0000
  Si          0.89931      0.29030      0.01685  1.0000
  Si          0.38409      0.24496      0.48297  1.0000
  Si          0.88649      0.58950      0.15212  1.0000
  Si          0.70477      0.09370      0.81756  1.0000
  Si          0.59093      0.69347      0.98288  1.0000
  Si          0.09997      0.36507      0.64669  1.0000
  Si          0.27088      0.87250      0.31604  1.0000
  Si          0.24135      0.33477      0.95369  1.0000
  Si          0.63243      0.88778      0.28750  1.0000
  Si          0.08810      0.71498      0.62002  1.0000
  Si          0.73358      0.61117      0.45417  1.0000
  Si          0.34459      0.07782      0.78774  1.0000
  Si          0.90255      0.24391      0.12031  1.0000
  Si          0.31105      0.21159      0.38089  1.0000
  Si          0.90751      0.66282      0.04994  1.0000
  Si          0.75763      0.06840      0.71569  1.0000
  Si          0.66129      0.74983      0.88072  1.0000
  Si          0.09494      0.30395      0.54418  1.0000
  Si          0.22079      0.88878      0.21384  1.0000
  Si          0.96558      0.11178      0.96736  1.0000
  Si          0.85096      0.83170      0.30130  1.0000
  Si          0.13927      0.98911      0.63508  1.0000
  Si          0.00790      0.83885      0.46775  1.0000
  Si          0.12758      0.13711      0.80130  1.0000
  Si          0.83519      0.96386      0.13441  1.0000
  Si          0.08868      0.93984      0.36683  1.0000
  Si          0.83696      0.87340      0.03398  1.0000
  Si          0.03136      0.11833      0.70064  1.0000
  Si          0.88445      0.02393      0.86651  1.0000
  Si          0.13496      0.07131      0.53330  1.0000
  Si          0.94766      0.83739      0.20055  1.0000
  O2          0.92011      0.98803      0.99893  1.0000
  O2          0.97157      0.90486      0.33371  1.0000
  O2          0.06005      0.02895      0.66844  1.0000
  O2          0.04103      0.95418      0.50183  1.0000
  O2          0.00260      0.06063      0.83277  1.0000
  O2          0.91056      0.91497      0.16548  1.0000
  O2          0.32217      0.55720      0.34466  1.0000
  O3          0.40979      0.72575      0.67718  1.0000
  O3          0.23047      0.64530      0.01236  1.0000
  O2          0.65409      0.41264      0.83744  1.0000
  O2          0.56308      0.21891      0.16934  1.0000
  O3          0.75245      0.29674      0.50087  1.0000
  O3          0.56713      0.33466      0.99992  1.0000
  O3          0.76519      0.39141      0.67056  1.0000
  O3          0.62966      0.21094      0.33328  1.0000
  O1          0.41913      0.62593      0.51112  1.0000
  O3          0.21049      0.55680      0.18070  1.0000
  O3          0.34388      0.76152      0.84560  1.0000
  O2          0.11753      0.20655      0.97410  1.0000
  O2          0.76043      0.89370      0.30738  1.0000
  O2          0.08352      0.83687      0.64105  1.0000
  O2          0.85968      0.73316      0.47509  1.0000
  O2          0.22022      0.07838      0.80896  1.0000
  O2          0.89782      0.11645      0.14099  1.0000
  O2          0.17393      0.09380      0.36477  1.0000
  O2          0.90421      0.78851      0.03316  1.0000
  O2          0.87845      0.05211      0.70111  1.0000
  O2          0.79751      0.87042      0.86373  1.0000
  O2          0.08559      0.17163      0.52798  1.0000
  O2          0.10155      0.90578      0.19765  1.0000
  O2          0.90086      0.84837      0.25009  1.0000
  O2          0.12012      0.02156      0.58441  1.0000
  O2          0.93835      0.06757      0.91610  1.0000
  O2          0.08477      0.11989      0.74987  1.0000
  O2          0.84628      0.93254      0.08285  1.0000
  O2          0.03420      0.89191      0.41689  1.0000
  O2          0.88926      0.18469      0.98057  1.0000
  O2          0.76932      0.68193      0.31375  1.0000
  O2          0.28873      0.06679      0.64727  1.0000
  O2          0.09463      0.77607      0.47935  1.0000
  O2          0.20359      0.28715      0.81315  1.0000
  O2          0.68587      0.89335      0.14744  1.0000
  O2          0.17261      0.87451      0.35340  1.0000
  O2          0.68782      0.78804      0.02105  1.0000
  O2          0.09774      0.26570      0.68422  1.0000
  O2          0.80281      0.09304      0.85468  1.0000
  O2          0.28447      0.13634      0.51888  1.0000
  O2          0.88256      0.68620      0.18927  1.0000
  O3          0.29891      0.60634      0.26035  1.0000
  O3          0.36698      0.66541      0.59162  1.0000
  O3          0.29908      0.66779      0.92639  1.0000
  O3          0.68026      0.35197      0.75417  1.0000
  O3          0.63689      0.31258      0.08704  1.0000
  O3          0.67365      0.28149      0.41731  1.0000
  O2          0.36481      0.32606      0.96947  1.0000
  O2          0.63770      0.01749      0.30289  1.0000
  O2          0.95745      0.58875      0.63510  1.0000
  O3          0.61626      0.62118      0.47230  1.0000
  O2          0.33761      0.94926      0.80607  1.0000
  O2          0.02967      0.36376      0.13945  1.0000
  O2          0.31321      0.34262      0.36534  1.0000
  O3          0.03804      0.67731      0.03231  1.0000
  O3          0.63307      0.93769      0.70059  1.0000
  O2          0.66222      0.62155      0.86316  1.0000
  O3          0.96530      0.29784      0.52794  1.0000
  O2          0.35064      0.02000      0.19691  1.0000
  O3          0.76809      0.29343      0.01039  1.0000
  O3          0.67817      0.44745      0.33807  1.0000
  O3          0.52235      0.20670      0.67365  1.0000
  O3          0.23244      0.68280      0.50761  1.0000
  O3          0.29096      0.51858      0.84219  1.0000
  O3          0.45425      0.74947      0.17619  1.0000
  O2          0.27354      0.74090      0.32467  1.0000
  O2          0.45795      0.69105      0.98979  1.0000
  O2          0.22988      0.49932      0.65513  1.0000
  O2          0.70400      0.22738      0.82258  1.0000
  O2          0.51711      0.24274      0.48500  1.0000
  O2          0.75269      0.45356      0.15626  1.0000
  O3          0.78307      0.54015      0.02896  1.0000
  O3          0.42270      0.19922      0.35796  1.0000
  O3          0.76842      0.19186      0.69224  1.0000
  O3          0.22045      0.42326      0.52363  1.0000
  O3          0.54820      0.76284      0.86080  1.0000
  O3          0.21077      0.76468      0.19302  1.0000
  O2          0.50739      0.76416      0.30841  1.0000
  O2          0.24691      0.45873      0.97488  1.0000
  O2          0.20942      0.71244      0.64105  1.0000
  O2          0.47143      0.20306      0.80529  1.0000
  O2          0.72892      0.48159      0.47200  1.0000
  O2          0.77714      0.24779      0.13739  1.0000
  O2          0.22717      0.32469      0.89946  1.0000
  O2          0.64470      0.88145      0.23335  1.0000
  O2          0.09705      0.73520      0.56589  1.0000
  O2          0.75116      0.62954      0.39969  1.0000
  O2          0.33080      0.07765      0.73357  1.0000
  O2          0.90313      0.23021      0.06624  1.0000
  O2          0.30958      0.19696      0.43570  1.0000
  O2          0.89560      0.66062      0.10486  1.0000
  O2          0.76680      0.08352      0.77056  1.0000
  O2          0.66454      0.75825      0.93579  1.0000
  O2          0.10128      0.30081      0.59936  1.0000
  O2          0.20724      0.87711      0.26885  1.0000
  O2          0.57039      0.55121      0.98993  1.0000
  O2          0.41195      0.99240      0.32240  1.0000
  O2          0.97897      0.38412      0.65333  1.0000
  O3          0.41013      0.38201      0.49770  1.0000
  O2          0.56281      0.97749      0.82698  1.0000
  O2          0.00151      0.56397      0.16177  1.0000
  O2          0.53896      0.56003      0.35116  1.0000
  O3          0.02458      0.42358      0.00732  1.0000
  O3          0.40740      0.95245      0.67910  1.0000
  O2          0.43657      0.41068      0.84504  1.0000
  O3          0.97754      0.53828      0.50861  1.0000
  O2          0.56089      0.00341      0.17886  1.0000
  O2          0.54908      0.13204      0.25119  1.0000
  O3          0.83520      0.38254      0.58680  1.0000
  O2          0.57263      0.41954      0.91799  1.0000
  O3          0.42259      0.82267      0.76150  1.0000
  O3          0.16364      0.58046      0.09578  1.0000
  O3          0.38839      0.52708      0.42399  1.0000
  F           0.40124      0.84454      0.24418  1.0000
  F           0.12794      0.52580      0.57404  1.0000
  F           0.43578      0.56487      0.91030  1.0000
  F           0.57149      0.10961      0.74196  1.0000
  F           0.92360      0.46299      0.07521  1.0000
  F           0.53947      0.38861      0.40989  1.0000
