data_cif

_audit_creation_method             'generated by GULP'

_symmetry_space_group_name_H-M     'P 1'
_symmetry_Int_Tables_number        1
_symmetry_cell_setting             triclinic

_cell_length_a                       12.0672
_cell_length_b                       12.0511
_cell_length_c                       29.6917
_cell_angle_alpha                   88.3814
_cell_angle_beta                    90.9944
_cell_angle_gamma                  120.0669

loop_
_atom_site_label
_atom_site_fract_x
_atom_site_fract_y
_atom_site_fract_z
_atom_site_occupancy
  Si          0.69960      0.37570      0.03389  1.0000
  Si          0.63909      0.31667      0.36529  1.0000
  Ge          0.67735      0.28372      0.69683  1.0000
  Ge          0.31044      0.62302      0.52841  1.0000
  Si          0.39184      0.67729      0.85994  1.0000
  Si          0.31861      0.68250      0.19678  1.0000
  Ge          0.39490      0.71711      0.29420  1.0000
  Si          0.33196      0.62652      0.96239  1.0000
  Ge          0.28337      0.66125      0.62664  1.0000
  Si          0.62836      0.29056      0.80031  1.0000
  Ge          0.67357      0.38977      0.46198  1.0000
  Si          0.71350      0.32154      0.13601  1.0000
  Ge          0.52849      0.42599      0.96643  1.0000
  Si          0.59181      0.10339      0.30175  1.0000
  Si          0.88930      0.46884      0.63109  1.0000
  Si          0.48478      0.58812      0.46238  1.0000
  Ge          0.43667      0.90018      0.79353  1.0000
  Ge          0.10585      0.52445      0.12682  1.0000
  Si          0.43590      0.53578      0.35949  1.0000
  Ge          0.11971      0.58459      0.02710  1.0000
  Si          0.46028      0.86333      0.69520  1.0000
  Ge          0.59096      0.45891      0.86750  1.0000
  Si          0.88850      0.42166      0.52852  1.0000
  Si          0.53651      0.10312      0.19921  1.0000
  Si          0.30526      0.39135      0.85131  1.0000
  Si          0.60504      0.88946      0.18746  1.0000
  Si          0.10781      0.70782      0.51679  1.0000
  Si          0.71918      0.60061      0.35112  1.0000
  Si          0.39142      0.08259      0.68431  1.0000
  Si          0.90128      0.29656      0.01697  1.0000
  Si          0.40232      0.30162      0.48348  1.0000
  Si          0.91401      0.60384      0.15130  1.0000
  Si          0.70742      0.08607      0.81740  1.0000
  Si          0.61041      0.70212      0.98365  1.0000
  Si          0.09503      0.38748      0.64898  1.0000
  Si          0.30619      0.89604      0.31827  1.0000
  Si          0.25022      0.33708      0.95381  1.0000
  Si          0.67616      0.90448      0.28911  1.0000
  Si          0.09201      0.75286      0.61844  1.0000
  Si          0.76847      0.67055      0.45242  1.0000
  Si          0.33978      0.08205      0.78667  1.0000
  Si          0.92111      0.24499      0.11909  1.0000
  Si          0.35811      0.25550      0.38072  1.0000
  Si          0.91672      0.66148      0.04832  1.0000
  Si          0.74322      0.06445      0.71490  1.0000
  Si          0.67365      0.74352      0.88130  1.0000
  Si          0.08839      0.33883      0.54646  1.0000
  Si          0.25662      0.90158      0.21511  1.0000
  Si          0.96805      0.11960      0.96917  1.0000
  Si          0.89878      0.85279      0.30113  1.0000
  Si          0.14338      0.02336      0.63407  1.0000
  Si          0.03941      0.89201      0.46640  1.0000
  Si          0.12453      0.14788      0.80191  1.0000
  Si          0.84994      0.96116      0.13557  1.0000
  Si          0.13919      0.98099      0.36638  1.0000
  Si          0.85051      0.87902      0.03473  1.0000
  Si          0.02135      0.13384      0.70121  1.0000
  Si          0.89036      0.02657      0.86846  1.0000
  Si          0.14830      0.12491      0.53340  1.0000
  Si          0.97964      0.84679      0.20037  1.0000
  O2          0.93885      0.00490      0.00455  1.0000
  O2          0.01902      0.93500      0.33320  1.0000
  O2          0.07015      0.06206      0.66932  1.0000
  O2          0.07805      0.00534      0.50091  1.0000
  O2          0.01296      0.06468      0.83767  1.0000
  O2          0.93776      0.92838      0.16813  1.0000
  O3          0.35887      0.57833      0.32824  1.0000
  O3          0.42041      0.75487      0.66030  1.0000
  O3          0.24165      0.66533      0.98747  1.0000
  O3          0.66939      0.41306      0.82972  1.0000
  O2          0.59038      0.23108      0.16764  1.0000
  O3          0.76869      0.34890      0.49773  1.0000
  O3          0.57746      0.34237      0.00590  1.0000
  O3          0.76408      0.41517      0.66149  1.0000
  O2          0.66776      0.23338      0.33005  1.0000
  O3          0.43050      0.66258      0.48922  1.0000
  O3          0.24394      0.57698      0.16139  1.0000
  O3          0.35497      0.75870      0.82873  1.0000
  O2          0.11790      0.22073      0.97373  1.0000
  O2          0.81250      0.91945      0.30494  1.0000
  O2          0.07244      0.86917      0.63546  1.0000
  O2          0.88559      0.80902      0.46753  1.0000
  O2          0.22165      0.09383      0.80557  1.0000
  O2          0.90828      0.11267      0.13840  1.0000
  O2          0.23295      0.13327      0.35945  1.0000
  O2          0.90360      0.78154      0.02876  1.0000
  O2          0.86748      0.05974      0.69686  1.0000
  O2          0.79633      0.87486      0.86252  1.0000
  O2          0.07782      0.20793      0.52782  1.0000
  O2          0.13213      0.90380      0.19442  1.0000
  O2          0.94943      0.86260      0.25104  1.0000
  O2          0.13664      0.07540      0.58463  1.0000
  O2          0.93353      0.06132      0.91981  1.0000
  O2          0.06503      0.12949      0.75220  1.0000
  O2          0.85913      0.91892      0.08601  1.0000
  O2          0.08942      0.95130      0.41714  1.0000
  O2          0.88932      0.19171      0.98045  1.0000
  O2          0.81825      0.70154      0.31388  1.0000
  O2          0.29233      0.08185      0.64662  1.0000
  O2          0.10014      0.80313      0.47881  1.0000
  O2          0.20104      0.29773      0.81415  1.0000
  O2          0.70097      0.88987      0.14962  1.0000
  O2          0.21701      0.90888      0.35553  1.0000
  O2          0.70277      0.81213      0.01903  1.0000
  O2          0.08013      0.28170      0.68678  1.0000
  O2          0.81958      0.10447      0.85285  1.0000
  O2          0.29733      0.21223      0.52105  1.0000
  O2          0.90250      0.69714      0.18752  1.0000
  O3          0.31335      0.62434      0.24631  1.0000
  O1          0.37907      0.67700      0.57928  1.0000
  O2          0.34608      0.67684      0.91114  1.0000
  O3          0.68176      0.33874      0.75005  1.0000
  O2          0.66170      0.32786      0.08631  1.0000
  O3          0.69136      0.30977      0.41393  1.0000
  O3          0.36155      0.31940      0.97572  1.0000
  O2          0.67775      0.03453      0.30509  1.0000
  O2          0.96318      0.62311      0.63498  1.0000
  O2          0.63946      0.67081      0.46725  1.0000
  O3          0.32600      0.95309      0.80690  1.0000
  O3          0.05150      0.35765      0.13747  1.0000
  O2          0.35412      0.37905      0.36179  1.0000
  O3          0.04673      0.67961      0.02828  1.0000
  O2          0.61863      0.93484      0.69947  1.0000
  O3          0.69022      0.62682      0.86596  1.0000
  O2          0.95871      0.33581      0.53099  1.0000
  O2          0.38172      0.03368      0.19759  1.0000
  O2          0.76952      0.30028      0.01487  1.0000
  O2          0.71712      0.46593      0.34591  1.0000
  O3          0.52182      0.21579      0.67723  1.0000
  O3          0.24008      0.71286      0.50877  1.0000
  O2          0.31460      0.52837      0.84413  1.0000
  O2          0.47134      0.75953      0.18142  1.0000
  O3          0.30248      0.76490      0.32766  1.0000
  O2          0.47223      0.69408      0.98626  1.0000
  O3          0.22429      0.51477      0.65937  1.0000
  O2          0.69780      0.21522      0.82165  1.0000
  O3          0.52938      0.29825      0.49462  1.0000
  O2          0.78476      0.46334      0.15723  1.0000
  O2          0.79958      0.52895      0.03053  1.0000
  O2          0.48378      0.25495      0.36356  1.0000
  O3          0.74341      0.18706      0.69243  1.0000
  O3          0.21159      0.45702      0.52440  1.0000
  O2          0.54420      0.72653      0.85868  1.0000
  O2          0.26170      0.78175      0.19597  1.0000
  O3          0.56251      0.77939      0.31049  1.0000
  O2          0.26127      0.47105      0.96875  1.0000
  O3          0.21672      0.76215      0.63975  1.0000
  O2          0.47272      0.20702      0.80272  1.0000
  O3          0.77950      0.55738      0.47583  1.0000
  O2          0.80037      0.25461      0.13807  1.0000
  O2          0.24178      0.32362      0.89939  1.0000
  O2          0.67820      0.89783      0.23426  1.0000
  O2          0.09938      0.76835      0.56374  1.0000
  O2          0.78205      0.67078      0.39780  1.0000
  O2          0.32598      0.07816      0.73195  1.0000
  O2          0.91698      0.23647      0.06456  1.0000
  O2          0.34140      0.23837      0.43486  1.0000
  O2          0.91674      0.67104      0.10257  1.0000
  O2          0.76436      0.07975      0.76864  1.0000
  O2          0.67953      0.76007      0.93526  1.0000
  O2          0.09815      0.32829      0.60076  1.0000
  O2          0.24415      0.90034      0.26922  1.0000
  O3          0.60331      0.57112      0.99774  1.0000
  O2          0.45135      0.01764      0.32364  1.0000
  O2          0.97181      0.40776      0.65275  1.0000
  O2          0.42543      0.44663      0.48647  1.0000
  O3          0.57816      0.95967      0.82901  1.0000
  O3          0.03896      0.59708      0.16134  1.0000
  O2          0.57858      0.57813      0.34156  1.0000
  O3          0.02004      0.43329      0.00435  1.0000
  O2          0.41942      0.96789      0.67659  1.0000
  O3          0.43951      0.40083      0.84284  1.0000
  O2          0.99261      0.56348      0.50990  1.0000
  O2          0.58638      0.01266      0.17943  1.0000
  O2          0.58611      0.14623      0.24995  1.0000
  O2          0.84642      0.42870      0.57977  1.0000
  O1          0.59721      0.39693      0.91910  1.0000
  O3          0.40413      0.80815      0.74430  1.0000
  O1          0.19465      0.59197      0.07673  1.0000
  O2          0.44383      0.58452      0.41046  1.0000
  F           0.45096      0.86451      0.25973  1.0000
  F           0.14164      0.57407      0.58769  1.0000
  F           0.48117      0.51816      0.92357  1.0000
  F           0.52907      0.04911      0.75830  1.0000
  F           0.95902      0.47315      0.08899  1.0000
  F           0.58688      0.44427      0.42463  1.0000
