data_cif

_audit_creation_method             'generated by GULP'

_symmetry_space_group_name_H-M     'P 1'
_symmetry_Int_Tables_number        1
_symmetry_cell_setting             triclinic

_cell_length_a                       12.0741
_cell_length_b                       12.0380
_cell_length_c                       29.6607
_cell_angle_alpha                   91.2189
_cell_angle_beta                    89.1928
_cell_angle_gamma                  119.9933

loop_
_atom_site_label
_atom_site_fract_x
_atom_site_fract_y
_atom_site_fract_z
_atom_site_occupancy
  Ge          0.69960      0.37570      0.03389  1.0000
  Ge          0.61031      0.33771      0.36743  1.0000
  Si          0.70063      0.31441      0.70043  1.0000
  Si          0.31327      0.61978      0.53848  1.0000
  Ge          0.39182      0.67097      0.87212  1.0000
  Ge          0.32945      0.71398      0.20786  1.0000
  Ge          0.37880      0.70424      0.30612  1.0000
  Ge          0.32685      0.62496      0.97043  1.0000
  Si          0.30861      0.67721      0.64003  1.0000
  Ge          0.62453      0.27934      0.79786  1.0000
  Si          0.69341      0.36438      0.46322  1.0000
  Ge          0.71150      0.32912      0.13218  1.0000
  Si          0.53501      0.41705      0.96410  1.0000
  Si          0.57892      0.12290      0.30005  1.0000
  Ge          0.91496      0.47304      0.63168  1.0000
  Si          0.48879      0.57738      0.47528  1.0000
  Si          0.42903      0.88655      0.80660  1.0000
  Si          0.10982      0.53027      0.14386  1.0000
  Si          0.42068      0.53566      0.37336  1.0000
  Si          0.11648      0.58207      0.04103  1.0000
  Si          0.48572      0.89385      0.70344  1.0000
  Si          0.58790      0.46709      0.86115  1.0000
  Ge          0.89940      0.41126      0.53231  1.0000
  Si          0.52693      0.11321      0.19667  1.0000
  Si          0.30263      0.39649      0.84922  1.0000
  Si          0.60079      0.89861      0.18437  1.0000
  Si          0.11403      0.69963      0.51976  1.0000
  Si          0.70373      0.61258      0.35131  1.0000
  Si          0.41617      0.10697      0.69060  1.0000
  Si          0.90676      0.29610      0.02305  1.0000
  Si          0.41411      0.29185      0.48235  1.0000
  Si          0.89509      0.60280      0.15619  1.0000
  Si          0.71460      0.10024      0.82073  1.0000
  Si          0.61203      0.70355      0.98221  1.0000
  Si          0.10870      0.39400      0.65569  1.0000
  Si          0.29497      0.90755      0.31551  1.0000
  Si          0.25334      0.33877      0.95134  1.0000
  Si          0.66122      0.92099      0.28679  1.0000
  Si          0.10003      0.75271      0.62221  1.0000
  Si          0.76575      0.65228      0.45410  1.0000
  Si          0.34568      0.08744      0.79213  1.0000
  Si          0.91001      0.24650      0.12515  1.0000
  Si          0.33316      0.24916      0.38175  1.0000
  Si          0.91196      0.66072      0.05395  1.0000
  Si          0.76518      0.09659      0.71765  1.0000
  Si          0.67174      0.75104      0.88003  1.0000
  Si          0.10182      0.33328      0.55295  1.0000
  Si          0.24463      0.91179      0.21346  1.0000
  Si          0.98195      0.11853      0.97029  1.0000
  Si          0.87912      0.86743      0.30347  1.0000
  Si          0.17289      0.03678      0.63735  1.0000
  Si          0.04341      0.87517      0.47086  1.0000
  Si          0.12547      0.13990      0.80236  1.0000
  Si          0.85412      0.97304      0.13606  1.0000
  Si          0.11497      0.97642      0.37002  1.0000
  Si          0.86106      0.88036      0.03524  1.0000
  Si          0.04102      0.14786      0.70257  1.0000
  Si          0.88935      0.02415      0.86964  1.0000
  Si          0.17175      0.11914      0.53593  1.0000
  Si          0.97252      0.85916      0.20354  1.0000
  O2          0.94377      0.00014      0.00308  1.0000
  O2          0.99009      0.93427      0.34048  1.0000
  O2          0.08322      0.07188      0.66761  1.0000
  O2          0.08187      0.99445      0.50518  1.0000
  O2          0.01029      0.07183      0.83716  1.0000
  O2          0.92420      0.92679      0.16972  1.0000
  O3          0.34539      0.59159      0.34851  1.0000
  O2          0.43188      0.76684      0.67087  1.0000
  O3          0.24192      0.65807      0.01170  1.0000
  O3          0.66277      0.41923      0.83110  1.0000
  O3          0.57501      0.23301      0.16626  1.0000
  O3          0.77819      0.32845      0.49339  1.0000
  O3          0.58391      0.34125      0.99291  1.0000
  O3          0.77780      0.42283      0.66555  1.0000
  O3          0.65042      0.24792      0.32946  1.0000
  O2          0.44018      0.65144      0.50950  1.0000
  O3          0.22956      0.57560      0.17439  1.0000
  O3          0.35463      0.76372      0.83540  1.0000
  O2          0.13530      0.20696      0.97101  1.0000
  O2          0.79458      0.93662      0.30590  1.0000
  O2          0.11285      0.88488      0.64106  1.0000
  O2          0.89155      0.77415      0.47601  1.0000
  O2          0.20724      0.06880      0.80723  1.0000
  O2          0.92444      0.12644      0.14187  1.0000
  O2          0.19274      0.13090      0.36836  1.0000
  O2          0.92660      0.79225      0.03400  1.0000
  O2          0.88939      0.09436      0.69644  1.0000
  O2          0.80735      0.87091      0.86339  1.0000
  O2          0.11621      0.21532      0.53244  1.0000
  O2          0.12468      0.92629      0.19670  1.0000
  O2          0.94042      0.88121      0.25449  1.0000
  O2          0.16781      0.07541      0.58646  1.0000
  O2          0.93506      0.06305      0.92062  1.0000
  O2          0.06903      0.12203      0.75237  1.0000
  O2          0.86622      0.93327      0.08535  1.0000
  O2          0.07324      0.92713      0.42073  1.0000
  O2          0.91819      0.20330      0.98503  1.0000
  O2          0.79004      0.71815      0.31456  1.0000
  O2          0.32043      0.10688      0.65232  1.0000
  O2          0.12114      0.80175      0.48271  1.0000
  O2          0.21174      0.29154      0.81164  1.0000
  O2          0.70398      0.90824      0.14696  1.0000
  O2          0.20214      0.91817      0.35343  1.0000
  O2          0.71383      0.79639      0.02014  1.0000
  O2          0.11951      0.29989      0.69189  1.0000
  O2          0.80570      0.08906      0.85756  1.0000
  O2          0.31990      0.19324      0.52022  1.0000
  O2          0.90538      0.70713      0.19401  1.0000
  O1          0.31575      0.62394      0.25704  1.0000
  O2          0.35898      0.67308      0.58922  1.0000
  O1          0.31895      0.69272      0.92158  1.0000
  O3          0.70456      0.37306      0.74932  1.0000
  O1          0.62117      0.30962      0.08269  1.0000
  O3          0.69086      0.31320      0.41363  1.0000
  O2          0.38038      0.33960      0.96793  1.0000
  O2          0.66292      0.05091      0.30167  1.0000
  O3          0.96972      0.64034      0.64038  1.0000
  O2          0.64357      0.65706      0.47602  1.0000
  O2          0.34395      0.95776      0.80696  1.0000
  O2          0.03718      0.37380      0.14231  1.0000
  O2          0.33295      0.38039      0.36987  1.0000
  O2          0.04005      0.66048      0.03803  1.0000
  O2          0.64028      0.96502      0.69990  1.0000
  O2          0.67297      0.62371      0.86296  1.0000
  O3          0.97381      0.31695      0.53256  1.0000
  O2          0.37078      0.03888      0.19626  1.0000
  O3          0.77893      0.29738      0.01175  1.0000
  O3          0.70399      0.48530      0.33790  1.0000
  O2          0.54983      0.23633      0.68320  1.0000
  O2          0.24651      0.69402      0.51665  1.0000
  O3          0.29605      0.52322      0.84210  1.0000
  O3          0.47402      0.76482      0.17651  1.0000
  O3          0.29287      0.77741      0.32651  1.0000
  O3          0.48211      0.70289      0.99312  1.0000
  O2          0.23932      0.53379      0.65999  1.0000
  O3          0.71931      0.23227      0.83007  1.0000
  O2          0.54819      0.29405      0.48531  1.0000
  O3          0.76205      0.47579      0.16323  1.0000
  O3          0.78841      0.54344      0.03202  1.0000
  O3          0.44128      0.23742      0.35552  1.0000
  O2          0.76078      0.21753      0.69848  1.0000
  O2          0.22156      0.46689      0.53554  1.0000
  O3          0.55858      0.76412      0.85941  1.0000
  O3          0.23277      0.78345      0.19361  1.0000
  O3          0.54534      0.79883      0.30968  1.0000
  O3          0.24540      0.45699      0.97249  1.0000
  O2          0.21977      0.74162      0.64144  1.0000
  O3          0.45729      0.21322      0.81418  1.0000
  O2          0.76210      0.52237      0.46860  1.0000
  O3          0.78261      0.23412      0.14557  1.0000
  O2          0.24019      0.32777      0.89706  1.0000
  O2          0.66733      0.90577      0.23269  1.0000
  O2          0.10526      0.76205      0.56745  1.0000
  O2          0.77146      0.67169      0.40040  1.0000
  O2          0.34426      0.10098      0.73721  1.0000
  O2          0.90321      0.23058      0.07030  1.0000
  O2          0.33844      0.23215      0.43606  1.0000
  O2          0.90366      0.67083      0.10820  1.0000
  O2          0.77745      0.09679      0.77163  1.0000
  O2          0.67705      0.76788      0.93483  1.0000
  O2          0.10287      0.32431      0.60710  1.0000
  O2          0.23002      0.90702      0.26837  1.0000
  O2          0.58942      0.55982      0.98583  1.0000
  O2          0.43853      0.02538      0.32082  1.0000
  O3          0.98594      0.40409      0.66595  1.0000
  O2          0.43566      0.43378      0.49318  1.0000
  O2          0.57079      0.98050      0.82694  1.0000
  O2          0.01135      0.57476      0.16336  1.0000
  O2          0.55927      0.59072      0.34917  1.0000
  O2          0.02850      0.43933      0.01960  1.0000
  O2          0.43290      0.98231      0.68338  1.0000
  O2          0.44749      0.42625      0.84148  1.0000
  O3          0.99673      0.56249      0.50827  1.0000
  O2          0.57321      0.01525      0.17764  1.0000
  O2          0.57180      0.15723      0.24835  1.0000
  O1          0.82556      0.40383      0.58182  1.0000
  O2          0.57747      0.41827      0.91256  1.0000
  O2          0.43902      0.84792      0.75388  1.0000
  O2          0.15426      0.57950      0.09259  1.0000
  O2          0.43612      0.57973      0.42619  1.0000
  F           0.42118      0.85929      0.24692  1.0000
  F           0.06132      0.52352      0.59207  1.0000
  F           0.43823      0.57561      0.91231  1.0000
  F           0.57102      0.13395      0.76206  1.0000
  F           0.85657      0.42344      0.09300  1.0000
  F           0.56386      0.42689      0.40853  1.0000
