data_cif

_audit_creation_method             'generated by GULP'

_symmetry_space_group_name_H-M     'P 1'
_symmetry_Int_Tables_number        1
_symmetry_cell_setting             triclinic

_cell_length_a                       12.0885
_cell_length_b                       12.0699
_cell_length_c                       29.6424
_cell_angle_alpha                   90.2514
_cell_angle_beta                    88.7536
_cell_angle_gamma                  120.3212

loop_
_atom_site_label
_atom_site_fract_x
_atom_site_fract_y
_atom_site_fract_z
_atom_site_occupancy
  Ge          0.69960      0.37570      0.03389  1.0000
  Ge          0.59096      0.30599      0.37172  1.0000
  Ge          0.65752      0.26605      0.70604  1.0000
  Ge          0.26376      0.58498      0.53527  1.0000
  Si          0.37167      0.66773      0.86692  1.0000
  Ge          0.31898      0.70711      0.20565  1.0000
  Si          0.35303      0.67125      0.30363  1.0000
  Si          0.31068      0.61053      0.96955  1.0000
  Si          0.30033      0.65878      0.63301  1.0000
  Si          0.61484      0.30263      0.80432  1.0000
  Si          0.65830      0.33840      0.46889  1.0000
  Si          0.69719      0.31798      0.13711  1.0000
  Si          0.51713      0.39827      0.97013  1.0000
  Si          0.56075      0.09307      0.30634  1.0000
  Si          0.87698      0.44478      0.63946  1.0000
  Si          0.44561      0.54713      0.46987  1.0000
  Si          0.40794      0.88098      0.80348  1.0000
  Si          0.11749      0.52924      0.13735  1.0000
  Si          0.39717      0.50014      0.36683  1.0000
  Ge          0.08853      0.56082      0.03746  1.0000
  Ge          0.46206      0.87893      0.69888  1.0000
  Ge          0.55758      0.46571      0.87191  1.0000
  Ge          0.87519      0.39309      0.53454  1.0000
  Ge          0.51804      0.09576      0.20169  1.0000
  Si          0.28926      0.38629      0.84749  1.0000
  Si          0.59315      0.88535      0.18227  1.0000
  Si          0.08810      0.68060      0.51367  1.0000
  Si          0.68231      0.57676      0.34821  1.0000
  Si          0.38698      0.08953      0.68164  1.0000
  Si          0.89748      0.28922      0.01466  1.0000
  Si          0.37473      0.26171      0.47939  1.0000
  Si          0.90267      0.60110      0.14721  1.0000
  Si          0.69352      0.09673      0.81385  1.0000
  Si          0.59219      0.68542      0.98193  1.0000
  Si          0.09303      0.37553      0.64566  1.0000
  Si          0.27337      0.87436      0.31517  1.0000
  Si          0.24139      0.32765      0.95040  1.0000
  Si          0.63623      0.88944      0.28563  1.0000
  Si          0.08539      0.72536      0.61731  1.0000
  Si          0.72598      0.62138      0.45121  1.0000
  Si          0.33275      0.08362      0.78569  1.0000
  Si          0.90953      0.24870      0.11800  1.0000
  Si          0.31050      0.21490      0.37755  1.0000
  Si          0.91295      0.66482      0.04524  1.0000
  Si          0.75060      0.07849      0.71187  1.0000
  Si          0.65690      0.74414      0.87998  1.0000
  Si          0.07367      0.30334      0.54376  1.0000
  Si          0.22807      0.89669      0.21301  1.0000
  Si          0.96049      0.10967      0.96363  1.0000
  Si          0.85308      0.83180      0.29817  1.0000
  Si          0.13644      0.00021      0.63217  1.0000
  Si          0.00069      0.84510      0.46503  1.0000
  Si          0.11291      0.14173      0.79806  1.0000
  Si          0.84639      0.96869      0.13087  1.0000
  Si          0.08867      0.94174      0.36410  1.0000
  Si          0.83907      0.87210      0.03026  1.0000
  Si          0.02485      0.12857      0.69722  1.0000
  Si          0.86992      0.02770      0.86317  1.0000
  Si          0.12507      0.08068      0.53115  1.0000
  Si          0.95625      0.84513      0.19758  1.0000
  O2          0.91524      0.98285      0.99323  1.0000
  O2          0.97480      0.90541      0.32977  1.0000
  O2          0.05401      0.04013      0.66428  1.0000
  O2          0.04013      0.96340      0.49834  1.0000
  O2          0.98484      0.05931      0.82791  1.0000
  O2          0.92548      0.92442      0.16153  1.0000
  O2          0.32260      0.55686      0.33898  1.0000
  O3          0.41036      0.73933      0.66806  1.0000
  O3          0.22901      0.64546      0.00092  1.0000
  O3          0.64506      0.41112      0.83892  1.0000
  O3          0.57940      0.23795      0.17053  1.0000
  O3          0.73432      0.30715      0.50492  1.0000
  O3          0.55755      0.32849      0.00643  1.0000
  O3          0.76243      0.40620      0.67294  1.0000
  O3          0.63254      0.20687      0.33929  1.0000
  O3          0.40201      0.62325      0.50066  1.0000
  O3          0.22499      0.56819      0.17271  1.0000
  O2          0.33629      0.75911      0.83765  1.0000
  O2          0.11259      0.20295      0.97024  1.0000
  O2          0.76078      0.89112      0.30610  1.0000
  O2          0.08453      0.84905      0.63886  1.0000
  O2          0.84906      0.74670      0.47190  1.0000
  O2          0.20773      0.08551      0.80606  1.0000
  O2          0.90654      0.12133      0.13752  1.0000
  O2          0.17477      0.09571      0.36110  1.0000
  O2          0.90807      0.78895      0.02794  1.0000
  O2          0.87227      0.06418      0.69643  1.0000
  O2          0.77599      0.87608      0.86068  1.0000
  O2          0.05965      0.16738      0.52896  1.0000
  O2          0.10961      0.91473      0.19790  1.0000
  O2          0.89947      0.85041      0.24635  1.0000
  O2          0.11836      0.02751      0.58100  1.0000
  O2          0.93009      0.07140      0.91186  1.0000
  O2          0.07528      0.12557      0.74627  1.0000
  O2          0.85547      0.93612      0.07897  1.0000
  O2          0.03037      0.89599      0.41395  1.0000
  O2          0.88348      0.17974      0.97925  1.0000
  O2          0.77406      0.68151      0.31042  1.0000
  O2          0.28493      0.08201      0.64519  1.0000
  O2          0.07975      0.77519      0.47677  1.0000
  O2          0.18199      0.29166      0.81151  1.0000
  O2          0.69805      0.89282      0.14566  1.0000
  O2          0.17319      0.87539      0.35237  1.0000
  O2          0.68811      0.78288      0.01989  1.0000
  O2          0.09426      0.27796      0.68283  1.0000
  O2          0.78946      0.09739      0.85166  1.0000
  O2          0.27492      0.16226      0.51697  1.0000
  O2          0.89691      0.69568      0.18510  1.0000
  O3          0.30196      0.61448      0.25531  1.0000
  O3          0.35715      0.66463      0.58363  1.0000
  O2          0.31789      0.66024      0.91762  1.0000
  O3          0.66809      0.35650      0.75445  1.0000
  O3          0.64656      0.31292      0.08739  1.0000
  O3          0.66899      0.28914      0.42010  1.0000
  O2          0.35997      0.31464      0.96820  1.0000
  O2          0.64216      0.01848      0.30257  1.0000
  O2          0.95509      0.60167      0.63452  1.0000
  O2          0.60230      0.62757      0.46826  1.0000
  O2          0.32396      0.95208      0.80368  1.0000
  O2          0.04087      0.37074      0.13391  1.0000
  O2          0.31193      0.34529      0.36182  1.0000
  O3          0.04145      0.67679      0.02557  1.0000
  O3          0.62690      0.94776      0.69556  1.0000
  O3          0.67323      0.63168      0.86014  1.0000
  O3          0.94536      0.29882      0.52782  1.0000
  O3          0.35397      0.02726      0.19648  1.0000
  O3          0.76948      0.29635      0.00811  1.0000
  O3          0.68339      0.44886      0.33772  1.0000
  O3          0.51710      0.21985      0.67306  1.0000
  O3          0.21661      0.67944      0.50295  1.0000
  O2          0.29923      0.52659      0.84383  1.0000
  O3          0.46395      0.75619      0.17313  1.0000
  O2          0.27432      0.74154      0.32187  1.0000
  O2          0.45820      0.68282      0.98724  1.0000
  O2          0.22694      0.50897      0.65048  1.0000
  O2          0.69022      0.22691      0.81994  1.0000
  O2          0.50666      0.26085      0.48551  1.0000
  O2          0.76928      0.46684      0.15284  1.0000
  O3          0.78519      0.54029      0.02740  1.0000
  O3          0.42456      0.20388      0.35579  1.0000
  O3          0.76135      0.20310      0.69027  1.0000
  O3          0.19974      0.41795      0.52140  1.0000
  O2          0.52597      0.73696      0.86285  1.0000
  O3          0.21838      0.77241      0.19108  1.0000
  O2          0.50824      0.76526      0.30479  1.0000
  O2          0.25235      0.45628      0.97001  1.0000
  O2          0.20867      0.72289      0.63579  1.0000
  O2          0.45917      0.20332      0.80478  1.0000
  O2          0.72278      0.49536      0.47065  1.0000
  O2          0.78912      0.25591      0.13925  1.0000
  O2          0.22783      0.31755      0.89626  1.0000
  O2          0.65242      0.88780      0.23154  1.0000
  O2          0.08958      0.74241      0.56314  1.0000
  O2          0.74542      0.63655      0.39690  1.0000
  O2          0.32213      0.08206      0.73148  1.0000
  O2          0.89954      0.23056      0.06415  1.0000
  O2          0.30504      0.20064      0.43240  1.0000
  O2          0.91048      0.67159      0.10023  1.0000
  O2          0.75807      0.08818      0.76687  1.0000
  O2          0.66517      0.75166      0.93476  1.0000
  O2          0.08185      0.30374      0.59871  1.0000
  O2          0.21434      0.88298      0.26800  1.0000
  O2          0.57061      0.54396      0.98982  1.0000
  O2          0.41492      0.99154      0.32300  1.0000
  O2          0.97718      0.40094      0.65556  1.0000
  O2          0.39909      0.40322      0.48824  1.0000
  O2          0.55117      0.97435      0.82124  1.0000
  O2          0.01892      0.57694      0.15523  1.0000
  O2          0.53913      0.55745      0.34435  1.0000
  O3          0.02637      0.41906      0.00338  1.0000
  O3          0.40250      0.96527      0.67341  1.0000
  O3          0.41976      0.39232      0.83565  1.0000
  O3          0.96160      0.54128      0.50836  1.0000
  O3          0.58067      0.01131      0.17520  1.0000
  O3          0.56131      0.14371      0.25592  1.0000
  O3          0.82780      0.39032      0.58945  1.0000
  O3          0.57810      0.39626      0.92235  1.0000
  O3          0.40767      0.82945      0.75380  1.0000
  O3          0.17354      0.58369      0.08755  1.0000
  O2          0.39789      0.54060      0.41848  1.0000
  F           0.41176      0.85644      0.24000  1.0000
  F           0.11540      0.53044      0.57102  1.0000
  F           0.46509      0.51939      0.90738  1.0000
  F           0.56114      0.11301      0.73892  1.0000
  F           0.93127      0.46819      0.07134  1.0000
  F           0.53621      0.39469      0.40740  1.0000
