data_cif

_audit_creation_method             'generated by GULP'

_symmetry_space_group_name_H-M     'P 1'
_symmetry_Int_Tables_number        1
_symmetry_cell_setting             triclinic

_cell_length_a                       12.0647
_cell_length_b                       12.0716
_cell_length_c                       29.6572
_cell_angle_alpha                   89.9006
_cell_angle_beta                    90.0413
_cell_angle_gamma                  120.0735

loop_
_atom_site_label
_atom_site_fract_x
_atom_site_fract_y
_atom_site_fract_z
_atom_site_occupancy
  Ge          0.69960      0.37570      0.03389  1.0000
  Ge          0.62639      0.32110      0.36750  1.0000
  Ge          0.67853      0.29604      0.70129  1.0000
  Ge          0.29902      0.61522      0.54628  1.0000
  Ge          0.38756      0.67499      0.87992  1.0000
  Ge          0.32433      0.70336      0.21163  1.0000
  Ge          0.37901      0.69728      0.31012  1.0000
  Si          0.32468      0.62475      0.97783  1.0000
  Ge          0.30283      0.67419      0.64489  1.0000
  Ge          0.62043      0.29448      0.79973  1.0000
  Ge          0.68178      0.38031      0.46590  1.0000
  Ge          0.70743      0.32192      0.13228  1.0000
  Si          0.53651      0.42137      0.96381  1.0000
  Si          0.58242      0.11238      0.29755  1.0000
  Si          0.88741      0.46047      0.63089  1.0000
  Si          0.48426      0.57940      0.48339  1.0000
  Si          0.42083      0.89753      0.81875  1.0000
  Si          0.10421      0.51852      0.14814  1.0000
  Si          0.42379      0.53336      0.38063  1.0000
  Si          0.11481      0.57634      0.04540  1.0000
  Si          0.46547      0.88142      0.71594  1.0000
  Si          0.58348      0.48151      0.86094  1.0000
  Si          0.90364      0.41562      0.52816  1.0000
  Si          0.52227      0.09952      0.19480  1.0000
  Si          0.29621      0.40825      0.85129  1.0000
  Si          0.59462      0.88505      0.18512  1.0000
  Si          0.11787      0.70345      0.51898  1.0000
  Si          0.70728      0.60879      0.36004  1.0000
  Si          0.39025      0.08911      0.69464  1.0000
  Si          0.90403      0.29294      0.02602  1.0000
  Si          0.41187      0.29195      0.49268  1.0000
  Si          0.89045      0.59235      0.15782  1.0000
  Si          0.70854      0.11341      0.82698  1.0000
  Si          0.61020      0.70272      0.98395  1.0000
  Si          0.09562      0.38571      0.65167  1.0000
  Si          0.29866      0.90441      0.31796  1.0000
  Si          0.25528      0.34560      0.95377  1.0000
  Si          0.66192      0.90897      0.28728  1.0000
  Si          0.09089      0.74416      0.62114  1.0000
  Si          0.76570      0.66191      0.46231  1.0000
  Si          0.33855      0.09582      0.79697  1.0000
  Si          0.90397      0.23665      0.12816  1.0000
  Si          0.34406      0.24991      0.39055  1.0000
  Si          0.91390      0.65885      0.05539  1.0000
  Si          0.74957      0.08537      0.72498  1.0000
  Si          0.66723      0.76308      0.88176  1.0000
  Si          0.10220      0.33315      0.54942  1.0000
  Si          0.24060      0.90091      0.21571  1.0000
  Si          0.98348      0.12270      0.97332  1.0000
  Si          0.88230      0.85840      0.30634  1.0000
  Si          0.14092      0.01458      0.64036  1.0000
  Si          0.04040      0.87981      0.47194  1.0000
  Si          0.12120      0.15319      0.80505  1.0000
  Si          0.84813      0.96232      0.13792  1.0000
  Si          0.12367      0.97891      0.37130  1.0000
  Si          0.86019      0.87839      0.03711  1.0000
  Si          0.02022      0.13515      0.70485  1.0000
  Si          0.88645      0.03710      0.87298  1.0000
  Si          0.15831      0.11499      0.53975  1.0000
  Si          0.96656      0.84502      0.20560  1.0000
  O2          0.94457      0.00088      0.00545  1.0000
  O2          0.00339      0.94073      0.33862  1.0000
  O2          0.05674      0.05261      0.67188  1.0000
  O2          0.08984      0.99781      0.50565  1.0000
  O2          0.00176      0.08586      0.83818  1.0000
  O2          0.91768      0.91434      0.17190  1.0000
  O3          0.34770      0.58585      0.35287  1.0000
  O3          0.41209      0.75253      0.68835  1.0000
  O2          0.24660      0.65023      0.01725  1.0000
  O3          0.65821      0.43637      0.83025  1.0000
  O3          0.56703      0.21905      0.16386  1.0000
  O3          0.78492      0.34185      0.49683  1.0000
  O3          0.58757      0.34413      0.99148  1.0000
  O3          0.75789      0.40644      0.65808  1.0000
  O3          0.65835      0.24137      0.32491  1.0000
  O3          0.44010      0.65328      0.51486  1.0000
  O3          0.22290      0.56355      0.17939  1.0000
  O3          0.34775      0.78003      0.85090  1.0000
  O2          0.13683      0.21648      0.97517  1.0000
  O2          0.79588      0.92570      0.30646  1.0000
  O2          0.07339      0.86077      0.64028  1.0000
  O2          0.88805      0.79551      0.47923  1.0000
  O2          0.20533      0.08575      0.81374  1.0000
  O2          0.91630      0.11472      0.14478  1.0000
  O2          0.21008      0.13275      0.37129  1.0000
  O2          0.92652      0.79095      0.03597  1.0000
  O2          0.86634      0.06785      0.70584  1.0000
  O2          0.80329      0.88469      0.86630  1.0000
  O2          0.09038      0.19930      0.53271  1.0000
  O2          0.11910      0.91374      0.19887  1.0000
  O2          0.93278      0.86006      0.25648  1.0000
  O2          0.14129      0.06447      0.59047  1.0000
  O2          0.94109      0.07143      0.92323  1.0000
  O2          0.07314      0.13325      0.75396  1.0000
  O2          0.86425      0.92789      0.08723  1.0000
  O2          0.07191      0.92923      0.42100  1.0000
  O2          0.91658      0.20318      0.98812  1.0000
  O2          0.79690      0.71204      0.32217  1.0000
  O2          0.28655      0.07525      0.65696  1.0000
  O2          0.10855      0.79650      0.48147  1.0000
  O2          0.20345      0.30500      0.81409  1.0000
  O2          0.69677      0.89451      0.14761  1.0000
  O2          0.20916      0.91796      0.35577  1.0000
  O2          0.71211      0.79504      0.02179  1.0000
  O2          0.08092      0.28166      0.68929  1.0000
  O2          0.80140      0.10387      0.86450  1.0000
  O2          0.30989      0.19895      0.53025  1.0000
  O2          0.89972      0.69413      0.19532  1.0000
  O1          0.30990      0.61603      0.26195  1.0000
  O1          0.38512      0.68799      0.59686  1.0000
  O3          0.31527      0.68727      0.93223  1.0000
  O1          0.69253      0.37956      0.74893  1.0000
  O1          0.61921      0.30862      0.08230  1.0000
  O1          0.69520      0.30764      0.41548  1.0000
  O2          0.38177      0.34192      0.96855  1.0000
  O2          0.66231      0.03776      0.30203  1.0000
  O2          0.96169      0.61507      0.63546  1.0000
  O2          0.64056      0.66301      0.48099  1.0000
  O2          0.33632      0.96911      0.81588  1.0000
  O2          0.03159      0.36241      0.14593  1.0000
  O2          0.34361      0.37872      0.37625  1.0000
  O2          0.04391      0.65985      0.04063  1.0000
  O2          0.62010      0.95601      0.71106  1.0000
  O2          0.66829      0.63780      0.86298  1.0000
  O2          0.97619      0.33216      0.53036  1.0000
  O2          0.36607      0.02696      0.19694  1.0000
  O3          0.77733      0.29550      0.01350  1.0000
  O3          0.70409      0.47931      0.34708  1.0000
  O3          0.52007      0.21492      0.68110  1.0000
  O3          0.25250      0.71118      0.51399  1.0000
  O3          0.28872      0.53504      0.84623  1.0000
  O3          0.46738      0.75086      0.17972  1.0000
  O3          0.30137      0.77752      0.33056  1.0000
  O2          0.47441      0.69377      0.99534  1.0000
  O3          0.22204      0.51535      0.66472  1.0000
  O3          0.71686      0.24830      0.83176  1.0000
  O3          0.53907      0.28491      0.49802  1.0000
  O3          0.75581      0.46562      0.16368  1.0000
  O3          0.79260      0.54302      0.03229  1.0000
  O3          0.45877      0.24369      0.36671  1.0000
  O3          0.75612      0.20614      0.70082  1.0000
  O3          0.23127      0.44940      0.53107  1.0000
  O3          0.55309      0.77791      0.86284  1.0000
  O3          0.22690      0.77197      0.19700  1.0000
  O3          0.54668      0.78709      0.31066  1.0000
  O2          0.25691      0.46848      0.97566  1.0000
  O3          0.21219      0.75092      0.64495  1.0000
  O3          0.45486      0.22462      0.81534  1.0000
  O3          0.77868      0.54610      0.48094  1.0000
  O3          0.77649      0.22501      0.14750  1.0000
  O2          0.23717      0.33749      0.89983  1.0000
  O2          0.66628      0.89734      0.23314  1.0000
  O2          0.10430      0.76153      0.56704  1.0000
  O2          0.77631      0.67057      0.40735  1.0000
  O2          0.32970      0.09761      0.74201  1.0000
  O2          0.89894      0.22440      0.07325  1.0000
  O2          0.34025      0.23265      0.44464  1.0000
  O2          0.90319      0.66339      0.10956  1.0000
  O2          0.76707      0.09941      0.77903  1.0000
  O2          0.67230      0.77275      0.93699  1.0000
  O2          0.10325      0.32438      0.60436  1.0000
  O2          0.23007      0.89837      0.27064  1.0000
  O2          0.59373      0.56187      0.98684  1.0000
  O2          0.44228      0.02620      0.32038  1.0000
  O2          0.97353      0.40681      0.65385  1.0000
  O2          0.44217      0.43660      0.50150  1.0000
  O2          0.56341      0.00033      0.83637  1.0000
  O2          0.00428      0.56109      0.16651  1.0000
  O2          0.56395      0.58762      0.35783  1.0000
  O2          0.02603      0.43658      0.02353  1.0000
  O2          0.41061      0.96651      0.69292  1.0000
  O2          0.44078      0.43739      0.84196  1.0000
  O2          0.00400      0.55844      0.50982  1.0000
  O2          0.56445      0.99955      0.17618  1.0000
  O2          0.57540      0.14575      0.24568  1.0000
  O2          0.85570      0.42099      0.57892  1.0000
  O2          0.57656      0.42854      0.91200  1.0000
  O2          0.42614      0.84899      0.76797  1.0000
  O2          0.15081      0.57193      0.09704  1.0000
  O2          0.43096      0.57375      0.43249  1.0000
  F           0.42085      0.85092      0.24861  1.0000
  F           0.15059      0.56259      0.58252  1.0000
  F           0.44257      0.58089      0.91214  1.0000
  F           0.56831      0.14548      0.76325  1.0000
  F           0.85433      0.41661      0.09482  1.0000
  F           0.58527      0.43205      0.42902  1.0000
