data_cif

_audit_creation_method             'generated by GULP'

_symmetry_space_group_name_H-M     'P 1'
_symmetry_Int_Tables_number        1
_symmetry_cell_setting             triclinic

_cell_length_a                       12.0747
_cell_length_b                       12.0308
_cell_length_c                       29.7164
_cell_angle_alpha                   90.0363
_cell_angle_beta                    88.6481
_cell_angle_gamma                  119.8065

loop_
_atom_site_label
_atom_site_fract_x
_atom_site_fract_y
_atom_site_fract_z
_atom_site_occupancy
  Si          0.69960      0.37570      0.03389  1.0000
  Ge          0.61985      0.34409      0.37003  1.0000
  Ge          0.68293      0.30301      0.69826  1.0000
  Ge          0.28498      0.62468      0.53596  1.0000
  Si          0.38089      0.67450      0.86521  1.0000
  Si          0.32767      0.69182      0.20185  1.0000
  Ge          0.39517      0.73132      0.29873  1.0000
  Si          0.31660      0.61902      0.96732  1.0000
  Si          0.32434      0.69953      0.63338  1.0000
  Si          0.61982      0.30300      0.80155  1.0000
  Ge          0.68382      0.38556      0.46781  1.0000
  Si          0.70943      0.32882      0.13574  1.0000
  Ge          0.52568      0.41158      0.96957  1.0000
  Si          0.58625      0.12614      0.30559  1.0000
  Si          0.90506      0.48846      0.63527  1.0000
  Si          0.46631      0.59108      0.46740  1.0000
  Si          0.41428      0.88354      0.80070  1.0000
  Ge          0.12537      0.53727      0.13189  1.0000
  Si          0.42253      0.54517      0.36400  1.0000
  Ge          0.09352      0.56910      0.03309  1.0000
  Ge          0.48268      0.91507      0.70134  1.0000
  Ge          0.57059      0.46950      0.87052  1.0000
  Si          0.89792      0.43006      0.53299  1.0000
  Ge          0.53443      0.11023      0.20152  1.0000
  Si          0.29862      0.39211      0.84886  1.0000
  Si          0.61056      0.89790      0.18736  1.0000
  Si          0.10410      0.71515      0.51330  1.0000
  Si          0.70891      0.61769      0.34863  1.0000
  Si          0.40052      0.10609      0.67897  1.0000
  Si          0.90025      0.29450      0.01446  1.0000
  Si          0.39829      0.30443      0.47940  1.0000
  Si          0.91037      0.61153      0.14695  1.0000
  Si          0.69750      0.09607      0.81241  1.0000
  Si          0.59774      0.69921      0.98206  1.0000
  Si          0.11556      0.41491      0.64630  1.0000
  Si          0.29914      0.90968      0.31851  1.0000
  Si          0.24547      0.33309      0.95156  1.0000
  Si          0.67272      0.92574      0.28917  1.0000
  Si          0.10806      0.76618      0.61602  1.0000
  Si          0.74857      0.67033      0.45098  1.0000
  Si          0.33915      0.08810      0.78248  1.0000
  Si          0.91830      0.25220      0.11683  1.0000
  Si          0.33932      0.25999      0.37778  1.0000
  Si          0.90802      0.66324      0.04444  1.0000
  Si          0.76102      0.09191      0.71066  1.0000
  Si          0.66528      0.74955      0.87984  1.0000
  Si          0.09688      0.34512      0.54504  1.0000
  Si          0.25008      0.90330      0.21560  1.0000
  Si          0.96241      0.11559      0.96357  1.0000
  Si          0.88968      0.87073      0.29794  1.0000
  Si          0.15869      0.04073      0.63074  1.0000
  Si          0.02093      0.88745      0.46475  1.0000
  Si          0.12179      0.15223      0.79756  1.0000
  Si          0.85491      0.97032      0.13209  1.0000
  Si          0.11969      0.98821      0.36508  1.0000
  Si          0.83994      0.87833      0.03040  1.0000
  Si          0.04419      0.16508      0.69682  1.0000
  Si          0.87734      0.03195      0.86272  1.0000
  Si          0.14599      0.12334      0.53052  1.0000
  Si          0.97649      0.85574      0.19705  1.0000
  O2          0.92372      0.99253      0.99507  1.0000
  O2          0.01138      0.94523      0.32842  1.0000
  O2          0.07868      0.08190      0.66347  1.0000
  O2          0.06653      0.00543      0.49816  1.0000
  O2          0.99497      0.06751      0.82814  1.0000
  O2          0.94743      0.93822      0.16096  1.0000
  O3          0.35241      0.59634      0.33397  1.0000
  O3          0.43048      0.77581      0.66838  1.0000
  O3          0.22803      0.65379      0.99511  1.0000
  O3          0.65373      0.41614      0.83408  1.0000
  O3          0.58752      0.24504      0.16669  1.0000
  O3          0.76893      0.35211      0.50702  1.0000
  O3          0.57108      0.33375      0.00883  1.0000
  O3          0.78176      0.44153      0.66688  1.0000
  O3          0.65912      0.24630      0.33517  1.0000
  O3          0.41808      0.66294      0.49876  1.0000
  O3          0.24903      0.57717      0.16809  1.0000
  O2          0.34345      0.76451      0.83650  1.0000
  O2          0.11255      0.21235      0.97032  1.0000
  O2          0.81032      0.94502      0.30373  1.0000
  O2          0.10599      0.88928      0.63754  1.0000
  O2          0.86839      0.80056      0.47021  1.0000
  O2          0.21463      0.09185      0.80291  1.0000
  O2          0.90866      0.12190      0.13648  1.0000
  O2          0.20379      0.14163      0.36127  1.0000
  O2          0.89300      0.78034      0.02534  1.0000
  O2          0.89296      0.10069      0.69392  1.0000
  O2          0.78609      0.87982      0.86033  1.0000
  O2          0.07532      0.20647      0.52941  1.0000
  O2          0.12703      0.90254      0.19419  1.0000
  O2          0.93597      0.87686      0.24626  1.0000
  O2          0.14052      0.06910      0.58008  1.0000
  O2          0.93260      0.07416      0.91216  1.0000
  O2          0.08447      0.15011      0.74647  1.0000
  O2          0.85861      0.93351      0.08038  1.0000
  O2          0.05696      0.94227      0.41424  1.0000
  O2          0.88225      0.18450      0.97862  1.0000
  O2          0.80317      0.72222      0.31111  1.0000
  O2          0.30724      0.11999      0.64349  1.0000
  O2          0.08792      0.80429      0.47607  1.0000
  O2          0.19255      0.29936      0.81334  1.0000
  O2          0.70843      0.89240      0.14985  1.0000
  O2          0.20649      0.92396      0.35511  1.0000
  O2          0.69002      0.80391      0.01876  1.0000
  O2          0.11321      0.31601      0.68447  1.0000
  O2          0.79413      0.09873      0.85038  1.0000
  O2          0.29442      0.20915      0.51688  1.0000
  O2          0.90012      0.70577      0.18406  1.0000
  O3          0.32249      0.63416      0.25008  1.0000
  O3          0.38021      0.70243      0.58377  1.0000
  O2          0.32532      0.66583      0.91543  1.0000
  O3          0.67487      0.35513      0.75137  1.0000
  O2          0.66186      0.33009      0.08571  1.0000
  O1          0.69674      0.32522      0.41755  1.0000
  O3          0.35854      0.31486      0.97035  1.0000
  O2          0.67258      0.05570      0.30257  1.0000
  O2          0.97806      0.64341      0.63506  1.0000
  O2          0.62249      0.67392      0.46689  1.0000
  O2          0.33023      0.95689      0.80123  1.0000
  O3          0.04819      0.36825      0.13349  1.0000
  O2          0.33980      0.38882      0.36223  1.0000
  O3          0.03690      0.67898      0.02350  1.0000
  O3          0.64793      0.96361      0.69174  1.0000
  O3          0.68168      0.63549      0.86082  1.0000
  O2          0.96924      0.34629      0.52935  1.0000
  O3          0.37065      0.03116      0.19603  1.0000
  O2          0.77091      0.30379      0.01187  1.0000
  O3          0.71342      0.49021      0.33873  1.0000
  O3          0.53466      0.23790      0.67414  1.0000
  O3          0.23347      0.71679      0.50290  1.0000
  O2          0.31123      0.53278      0.84345  1.0000
  O2          0.47517      0.76873      0.18125  1.0000
  O3          0.29509      0.77874      0.32850  1.0000
  O2          0.46189      0.69414      0.98588  1.0000
  O2          0.24666      0.54780      0.65109  1.0000
  O2          0.69125      0.22541      0.81809  1.0000
  O3          0.52539      0.29952      0.48871  1.0000
  O2          0.78269      0.47363      0.15434  1.0000
  O2          0.78629      0.53028      0.02807  1.0000
  O3          0.45407      0.24843      0.35598  1.0000
  O3          0.76221      0.21796      0.69146  1.0000
  O3          0.22286      0.45617      0.52274  1.0000
  O2          0.53467      0.74009      0.86194  1.0000
  O2          0.25798      0.77984      0.19830  1.0000
  O3          0.56084      0.80193      0.31272  1.0000
  O2          0.26271      0.46546      0.97105  1.0000
  O2          0.22910      0.76090      0.63392  1.0000
  O2          0.46613      0.20731      0.80106  1.0000
  O3          0.75402      0.55180      0.47213  1.0000
  O2          0.79991      0.26494      0.13775  1.0000
  O2          0.23543      0.32559      0.89748  1.0000
  O2          0.67638      0.90756      0.23461  1.0000
  O2          0.10584      0.77977      0.56205  1.0000
  O2          0.76962      0.68045      0.39672  1.0000
  O2          0.33113      0.09205      0.72859  1.0000
  O2          0.91050      0.23648      0.06281  1.0000
  O2          0.33233      0.24185      0.43232  1.0000
  O2          0.91074      0.67548      0.09897  1.0000
  O2          0.76545      0.09326      0.76558  1.0000
  O2          0.67150      0.75956      0.93434  1.0000
  O2          0.10493      0.34162      0.59988  1.0000
  O2          0.23874      0.90981      0.26957  1.0000
  O3          0.58175      0.56283      0.99350  1.0000
  O2          0.44241      0.02836      0.32426  1.0000
  O2          0.99503      0.43654      0.65534  1.0000
  O2          0.42558      0.44825      0.48577  1.0000
  O2          0.55709      0.97358      0.82027  1.0000
  O3          0.03301      0.59937      0.15537  1.0000
  O2          0.56573      0.59308      0.34349  1.0000
  O3          0.02411      0.42467      0.00088  1.0000
  O3          0.41070      0.98318      0.66701  1.0000
  O3          0.42934      0.39658      0.83784  1.0000
  O2          0.98111      0.57098      0.50971  1.0000
  O3          0.59659      0.02109      0.17791  1.0000
  O3          0.57992      0.16793      0.25389  1.0000
  O2          0.86018      0.43702      0.58517  1.0000
  O1          0.59213      0.40089      0.91981  1.0000
  O3          0.41217      0.82681      0.75264  1.0000
  O1          0.19057      0.59537      0.08006  1.0000
  O2          0.42328      0.58684      0.41588  1.0000
  F           0.44657      0.87361      0.25951  1.0000
  F           0.14078      0.57127      0.57218  1.0000
  F           0.47658      0.52142      0.91082  1.0000
  F           0.54052      0.06705      0.73651  1.0000
  F           0.95293      0.47905      0.07478  1.0000
  F           0.56853      0.43389      0.40982  1.0000
