data_cif

_audit_creation_method             'generated by GULP'

_symmetry_space_group_name_H-M     'P 1'
_symmetry_Int_Tables_number        1
_symmetry_cell_setting             triclinic

_cell_length_a                       12.0938
_cell_length_b                       12.0727
_cell_length_c                       29.6588
_cell_angle_alpha                   89.7004
_cell_angle_beta                    89.4596
_cell_angle_gamma                  120.2154

loop_
_atom_site_label
_atom_site_fract_x
_atom_site_fract_y
_atom_site_fract_z
_atom_site_occupancy
  Ge          0.69960      0.37570      0.03389  1.0000
  Ge          0.59494      0.30781      0.37017  1.0000
  Ge          0.67151      0.25652      0.70393  1.0000
  Ge          0.27914      0.58123      0.53853  1.0000
  Ge          0.38398      0.65733      0.87446  1.0000
  Ge          0.31738      0.70040      0.20827  1.0000
  Ge          0.36122      0.67604      0.30674  1.0000
  Si          0.30630      0.61613      0.97294  1.0000
  Si          0.30962      0.64949      0.63656  1.0000
  Si          0.63491      0.29666      0.80153  1.0000
  Si          0.67121      0.33199      0.46676  1.0000
  Si          0.69296      0.31223      0.13677  1.0000
  Si          0.51808      0.40781      0.97015  1.0000
  Si          0.56350      0.09686      0.30305  1.0000
  Si          0.88782      0.43523      0.63710  1.0000
  Si          0.46065      0.54170      0.47546  1.0000
  Si          0.42204      0.87377      0.80798  1.0000
  Si          0.11200      0.52572      0.14052  1.0000
  Si          0.40203      0.50118      0.37257  1.0000
  Ge          0.08527      0.56113      0.04065  1.0000
  Ge          0.47132      0.86762      0.70309  1.0000
  Ge          0.57543      0.46122      0.86588  1.0000
  Ge          0.89047      0.38759      0.53232  1.0000
  Si          0.51333      0.09467      0.20026  1.0000
  Si          0.28951      0.38724      0.84858  1.0000
  Si          0.58935      0.88570      0.18466  1.0000
  Si          0.10432      0.67662      0.51429  1.0000
  Si          0.68550      0.58144      0.35032  1.0000
  Si          0.39892      0.08008      0.68249  1.0000
  Si          0.89823      0.29041      0.01497  1.0000
  Si          0.38971      0.25607      0.48225  1.0000
  Si          0.89501      0.59433      0.14989  1.0000
  Si          0.70967      0.09020      0.81418  1.0000
  Si          0.59146      0.69330      0.98198  1.0000
  Si          0.10313      0.36487      0.64619  1.0000
  Si          0.27753      0.87914      0.31564  1.0000
  Si          0.24081      0.33486      0.95213  1.0000
  Si          0.64489      0.89665      0.28710  1.0000
  Si          0.09599      0.71678      0.61789  1.0000
  Si          0.73868      0.61688      0.45312  1.0000
  Si          0.35159      0.08147      0.78610  1.0000
  Si          0.90842      0.24674      0.11827  1.0000
  Si          0.31614      0.21578      0.38101  1.0000
  Si          0.90839      0.66347      0.04771  1.0000
  Si          0.76122      0.06661      0.71238  1.0000
  Si          0.66445      0.74928      0.87982  1.0000
  Si          0.09026      0.29919      0.54406  1.0000
  Si          0.22929      0.89461      0.21346  1.0000
  Si          0.96524      0.11250      0.96596  1.0000
  Si          0.86018      0.83785      0.29986  1.0000
  Si          0.14650      0.99084      0.63353  1.0000
  Si          0.01373      0.84042      0.46666  1.0000
  Si          0.12877      0.13444      0.79958  1.0000
  Si          0.84167      0.96704      0.13322  1.0000
  Si          0.09504      0.94582      0.36647  1.0000
  Si          0.83762      0.87393      0.03259  1.0000
  Si          0.03486      0.11724      0.69874  1.0000
  Si          0.88847      0.02311      0.86501  1.0000
  Si          0.14031      0.07549      0.53249  1.0000
  Si          0.95631      0.84179      0.19899  1.0000
  O2          0.91949      0.98885      0.99759  1.0000
  O2          0.98046      0.90887      0.33222  1.0000
  O2          0.06603      0.02972      0.66656  1.0000
  O2          0.05443      0.95793      0.50010  1.0000
  O2          0.00625      0.05395      0.83186  1.0000
  O2          0.91812      0.91946      0.16433  1.0000
  O3          0.32603      0.55788      0.34708  1.0000
  O3          0.41674      0.72691      0.67281  1.0000
  O3          0.22943      0.64716      0.00792  1.0000
  O3          0.66432      0.40914      0.83582  1.0000
  O2          0.57241      0.22473      0.16971  1.0000
  O3          0.75295      0.30064      0.50082  1.0000
  O3          0.56180      0.33355      0.00330  1.0000
  O3          0.77246      0.39478      0.67009  1.0000
  O3          0.63547      0.21716      0.33294  1.0000
  O3          0.42080      0.61870      0.50693  1.0000
  O3          0.21949      0.56225      0.17586  1.0000
  O3          0.34755      0.76060      0.84173  1.0000
  O2          0.11659      0.20849      0.97316  1.0000
  O2          0.77701      0.90759      0.30498  1.0000
  O2          0.09308      0.83910      0.63925  1.0000
  O2          0.86337      0.73955      0.47420  1.0000
  O2          0.22726      0.08268      0.80694  1.0000
  O2          0.90600      0.12020      0.13860  1.0000
  O2          0.17717      0.09990      0.36561  1.0000
  O2          0.90402      0.78843      0.03089  1.0000
  O2          0.88220      0.05123      0.69740  1.0000
  O2          0.80029      0.87050      0.86365  1.0000
  O2          0.07857      0.16528      0.52843  1.0000
  O2          0.11011      0.91015      0.19619  1.0000
  O2          0.90941      0.84985      0.24874  1.0000
  O2          0.12796      0.02224      0.58279  1.0000
  O2          0.94099      0.07005      0.91457  1.0000
  O2          0.08355      0.11407      0.74840  1.0000
  O2          0.84885      0.93182      0.08183  1.0000
  O2          0.03774      0.89212      0.41573  1.0000
  O2          0.88731      0.18390      0.97895  1.0000
  O2          0.77391      0.68880      0.31287  1.0000
  O2          0.29530      0.07055      0.64602  1.0000
  O2          0.09575      0.77225      0.47742  1.0000
  O2          0.19603      0.28388      0.81179  1.0000
  O2          0.69343      0.89902      0.14720  1.0000
  O2          0.18360      0.88671      0.35321  1.0000
  O2          0.68811      0.78871      0.02011  1.0000
  O2          0.10217      0.26597      0.68369  1.0000
  O2          0.80813      0.09176      0.85141  1.0000
  O2          0.29110      0.15382      0.51951  1.0000
  O2          0.89223      0.69127      0.18708  1.0000
  O1          0.30428      0.60578      0.25634  1.0000
  O3          0.36923      0.65857      0.58775  1.0000
  O3          0.30508      0.66827      0.92315  1.0000
  O3          0.68665      0.35151      0.75227  1.0000
  O3          0.64219      0.31426      0.08745  1.0000
  O3          0.67515      0.28449      0.41718  1.0000
  O2          0.36316      0.32535      0.96829  1.0000
  O2          0.64958      0.02737      0.30118  1.0000
  O2          0.96521      0.59199      0.63369  1.0000
  O2          0.61706      0.62120      0.47294  1.0000
  O2          0.34408      0.95208      0.80390  1.0000
  O2          0.03637      0.36769      0.13628  1.0000
  O2          0.31789      0.34683      0.36657  1.0000
  O3          0.03795      0.67768      0.02928  1.0000
  O3          0.63617      0.93680      0.69726  1.0000
  O3          0.66989      0.62630      0.86197  1.0000
  O3          0.96169      0.29405      0.52752  1.0000
  O2          0.35913      0.02388      0.19577  1.0000
  O3          0.76697      0.29357      0.00935  1.0000
  O3          0.68557      0.45431      0.33783  1.0000
  O3          0.52935      0.20828      0.67171  1.0000
  O3          0.23388      0.67686      0.50518  1.0000
  O3          0.29163      0.51768      0.84012  1.0000
  O3          0.46150      0.75654      0.17509  1.0000
  O3          0.27113      0.74598      0.32464  1.0000
  O2          0.45862      0.69139      0.98801  1.0000
  O2          0.23516      0.49848      0.65290  1.0000
  O2          0.71014      0.22373      0.81955  1.0000
  O2          0.52231      0.25476      0.48581  1.0000
  O2          0.76266      0.45792      0.15555  1.0000
  O3          0.78327      0.53990      0.02767  1.0000
  O3          0.42689      0.20394      0.35710  1.0000
  O3          0.77256      0.19089      0.68953  1.0000
  O3          0.21605      0.41556      0.52289  1.0000
  O3          0.55104      0.76203      0.85941  1.0000
  O3          0.21907      0.76935      0.19351  1.0000
  O3          0.52719      0.77517      0.31037  1.0000
  O2          0.24831      0.46035      0.97263  1.0000
  O2          0.21751      0.71324      0.63799  1.0000
  O2          0.47847      0.20539      0.80445  1.0000
  O2          0.73749      0.48884      0.46959  1.0000
  O2          0.78453      0.25079      0.13690  1.0000
  O2          0.22742      0.32393      0.89800  1.0000
  O2          0.65106      0.88410      0.23291  1.0000
  O2          0.10311      0.73605      0.56374  1.0000
  O2          0.75218      0.63749      0.39892  1.0000
  O2          0.33909      0.08255      0.73197  1.0000
  O2          0.90431      0.23168      0.06427  1.0000
  O2          0.31600      0.19864      0.43558  1.0000
  O2          0.89935      0.66289      0.10264  1.0000
  O2          0.77134      0.07978      0.76723  1.0000
  O2          0.66493      0.75608      0.93495  1.0000
  O2          0.09740      0.29677      0.59911  1.0000
  O2          0.21748      0.88937      0.26825  1.0000
  O2          0.56897      0.55078      0.98943  1.0000
  O2          0.42264      0.99269      0.32230  1.0000
  O2          0.98538      0.38825      0.65393  1.0000
  O2          0.41595      0.39715      0.49307  1.0000
  O2          0.56768      0.97396      0.82333  1.0000
  O2          0.01190      0.57115      0.15825  1.0000
  O2          0.54198      0.56198      0.34802  1.0000
  O3          0.02299      0.42330      0.00446  1.0000
  O3          0.41118      0.95377      0.67682  1.0000
  O3          0.42829      0.39985      0.84108  1.0000
  O3          0.97930      0.53725      0.50747  1.0000
  O2          0.56955      0.00917      0.17969  1.0000
  O2          0.55370      0.13757      0.25133  1.0000
  O3          0.83997      0.38434      0.58673  1.0000
  O3          0.57428      0.41165      0.92072  1.0000
  O3          0.42409      0.82224      0.75783  1.0000
  O3          0.16797      0.58230      0.09135  1.0000
  O2          0.40916      0.53774      0.42480  1.0000
  F           0.40758      0.84321      0.24578  1.0000
  F           0.12905      0.52434      0.57229  1.0000
  F           0.43963      0.56043      0.90662  1.0000
  F           0.57690      0.10962      0.73977  1.0000
  F           0.92664      0.46505      0.07304  1.0000
  F           0.54430      0.39385      0.40850  1.0000
