data_cif

_audit_creation_method             'generated by GULP'

_symmetry_space_group_name_H-M     'P 1'
_symmetry_Int_Tables_number        1
_symmetry_cell_setting             triclinic

_cell_length_a                       12.0687
_cell_length_b                       12.0874
_cell_length_c                       29.6809
_cell_angle_alpha                   90.2851
_cell_angle_beta                    88.8261
_cell_angle_gamma                  120.1501

loop_
_atom_site_label
_atom_site_fract_x
_atom_site_fract_y
_atom_site_fract_z
_atom_site_occupancy
  Ge          0.69960      0.37570      0.03389  1.0000
  Ge          0.59349      0.30554      0.37068  1.0000
  Ge          0.65860      0.26196      0.70581  1.0000
  Ge          0.26859      0.58544      0.53792  1.0000
  Ge          0.37449      0.66523      0.86670  1.0000
  Ge          0.31799      0.70589      0.20542  1.0000
  Si          0.34950      0.66942      0.30341  1.0000
  Si          0.30885      0.60932      0.97026  1.0000
  Si          0.29811      0.65863      0.63555  1.0000
  Si          0.61818      0.30079      0.80336  1.0000
  Si          0.66315      0.33852      0.46820  1.0000
  Si          0.69537      0.31748      0.13702  1.0000
  Si          0.51709      0.39881      0.96983  1.0000
  Si          0.56156      0.09084      0.30581  1.0000
  Si          0.87508      0.44050      0.63837  1.0000
  Si          0.45049      0.54812      0.47296  1.0000
  Si          0.41016      0.88040      0.80149  1.0000
  Si          0.11475      0.52619      0.13825  1.0000
  Ge          0.40295      0.50339      0.36834  1.0000
  Ge          0.08671      0.55832      0.03854  1.0000
  Si          0.46532      0.87535      0.69890  1.0000
  Ge          0.55917      0.46364      0.87061  1.0000
  Ge          0.88021      0.39166      0.53372  1.0000
  Ge          0.51873      0.09439      0.20124  1.0000
  Si          0.28872      0.38144      0.84626  1.0000
  Si          0.59196      0.88246      0.18235  1.0000
  Si          0.09220      0.67908      0.51389  1.0000
  Si          0.69017      0.57793      0.34790  1.0000
  Si          0.38995      0.08288      0.68116  1.0000
  Si          0.89705      0.28784      0.01501  1.0000
  Si          0.37978      0.26176      0.47990  1.0000
  Si          0.90037      0.59953      0.14761  1.0000
  Si          0.69446      0.09239      0.81295  1.0000
  Si          0.59274      0.68515      0.98129  1.0000
  Si          0.09450      0.37472      0.64660  1.0000
  Si          0.27354      0.87566      0.31395  1.0000
  Si          0.24095      0.32660      0.94952  1.0000
  Si          0.63386      0.88384      0.28573  1.0000
  Si          0.08080      0.72059      0.61737  1.0000
  Si          0.73086      0.62099      0.45143  1.0000
  Si          0.33640      0.08368      0.78403  1.0000
  Si          0.90747      0.24678      0.11830  1.0000
  Si          0.31232      0.21403      0.37804  1.0000
  Si          0.91183      0.66374      0.04565  1.0000
  Si          0.74961      0.07338      0.71115  1.0000
  Si          0.66237      0.74295      0.87928  1.0000
  Si          0.08068      0.30410      0.54462  1.0000
  Si          0.22861      0.89693      0.21196  1.0000
  Si          0.96095      0.10917      0.96365  1.0000
  Si          0.85627      0.83168      0.29815  1.0000
  Si          0.13772      0.99567      0.63171  1.0000
  Si          0.00511      0.84394      0.46525  1.0000
  Si          0.11340      0.13669      0.79705  1.0000
  Si          0.84480      0.96713      0.13069  1.0000
  Si          0.08959      0.94086      0.36436  1.0000
  Si          0.83913      0.87188      0.03004  1.0000
  Si          0.02338      0.12443      0.69656  1.0000
  Si          0.87308      0.02493      0.86308  1.0000
  Si          0.13049      0.08009      0.53109  1.0000
  Si          0.95615      0.84469      0.19723  1.0000
  O2          0.91626      0.98248      0.99317  1.0000
  O2          0.97662      0.91020      0.33008  1.0000
  O2          0.06006      0.04239      0.66327  1.0000
  O2          0.04599      0.96418      0.49772  1.0000
  O2          0.98848      0.05684      0.82825  1.0000
  O2          0.92460      0.92334      0.16123  1.0000
  O3          0.31707      0.55842      0.33873  1.0000
  O2          0.40945      0.74297      0.67111  1.0000
  O3          0.22917      0.64235      0.00341  1.0000
  O3          0.64731      0.40733      0.83872  1.0000
  O3          0.57796      0.23627      0.17024  1.0000
  O3          0.74150      0.30611      0.50282  1.0000
  O3          0.55851      0.32880      0.00555  1.0000
  O3          0.76037      0.40000      0.67179  1.0000
  O3          0.63431      0.20508      0.33837  1.0000
  O3          0.41115      0.62307      0.50631  1.0000
  O3          0.22271      0.56559      0.17336  1.0000
  O3          0.33501      0.75906      0.83307  1.0000
  O2          0.11310      0.20296      0.97004  1.0000
  O2          0.75805      0.88422      0.30615  1.0000
  O2          0.07778      0.84358      0.63837  1.0000
  O2          0.85380      0.74517      0.47263  1.0000
  O2          0.20949      0.08184      0.80439  1.0000
  O2          0.90367      0.11913      0.13766  1.0000
  O2          0.17696      0.09353      0.36264  1.0000
  O2          0.90790      0.78827      0.02838  1.0000
  O2          0.86969      0.05625      0.69483  1.0000
  O2          0.78674      0.87299      0.86180  1.0000
  O2          0.06656      0.16838      0.52963  1.0000
  O2          0.10951      0.91366      0.19639  1.0000
  O2          0.90271      0.85250      0.24633  1.0000
  O2          0.12261      0.02483      0.58052  1.0000
  O2          0.93124      0.07286      0.91186  1.0000
  O2          0.07056      0.11834      0.74580  1.0000
  O2          0.85401      0.93566      0.07869  1.0000
  O2          0.03159      0.89188      0.41397  1.0000
  O2          0.88347      0.17866      0.97967  1.0000
  O2          0.78679      0.68234      0.31087  1.0000
  O2          0.28690      0.06801      0.64393  1.0000
  O2          0.08485      0.77437      0.47708  1.0000
  O2          0.18361      0.28594      0.81010  1.0000
  O2          0.69683      0.89000      0.14570  1.0000
  O2          0.17296      0.87426      0.35136  1.0000
  O2          0.68850      0.78290      0.01918  1.0000
  O2          0.09054      0.27441      0.68365  1.0000
  O2          0.78974      0.09101      0.85069  1.0000
  O2          0.28060      0.16160      0.51726  1.0000
  O2          0.89519      0.69495      0.18523  1.0000
  O3          0.30162      0.61377      0.25459  1.0000
  O3          0.35862      0.66430      0.58719  1.0000
  O3          0.31361      0.66234      0.91958  1.0000
  O3          0.67192      0.35666      0.75382  1.0000
  O3          0.64527      0.31364      0.08726  1.0000
  O3          0.67124      0.29068      0.41894  1.0000
  O2          0.36039      0.31588      0.96798  1.0000
  O2          0.64091      0.01387      0.30218  1.0000
  O2          0.95083      0.59699      0.63412  1.0000
  O2          0.60716      0.62760      0.46817  1.0000
  O2          0.32740      0.95244      0.80125  1.0000
  O2          0.03826      0.36809      0.13472  1.0000
  O3          0.30915      0.33896      0.36187  1.0000
  O3          0.04021      0.67461      0.02630  1.0000
  O2          0.62022      0.94391      0.69478  1.0000
  O3          0.67620      0.62816      0.85989  1.0000
  O3          0.95090      0.29751      0.52886  1.0000
  O3          0.35477      0.02597      0.19517  1.0000
  O3          0.76909      0.29560      0.00836  1.0000
  O3          0.68796      0.44805      0.33745  1.0000
  O3          0.51871      0.21201      0.67147  1.0000
  O3          0.22284      0.68010      0.50489  1.0000
  O3          0.29298      0.51616      0.84150  1.0000
  O3          0.46232      0.75498      0.17255  1.0000
  O2          0.27206      0.74228      0.32006  1.0000
  O2          0.45851      0.68226      0.98616  1.0000
  O2          0.22620      0.50963      0.65367  1.0000
  O2          0.69328      0.22386      0.81885  1.0000
  O2          0.51224      0.26095      0.48508  1.0000
  O2          0.76684      0.46575      0.15307  1.0000
  O3          0.78437      0.53983      0.02748  1.0000
  O3          0.42752      0.20351      0.35610  1.0000
  O3          0.76322      0.19855      0.68993  1.0000
  O3          0.20549      0.41942      0.52237  1.0000
  O3          0.53903      0.74550      0.86044  1.0000
  O3          0.21785      0.77163      0.19068  1.0000
  O2          0.50599      0.76129      0.30551  1.0000
  O2          0.25111      0.45568      0.96794  1.0000
  O2          0.20375      0.71885      0.63661  1.0000
  O2          0.46181      0.20330      0.80359  1.0000
  O2          0.72671      0.49454      0.47072  1.0000
  O2          0.78686      0.25469      0.13901  1.0000
  O2          0.22916      0.31459      0.89550  1.0000
  O2          0.64925      0.88098      0.23166  1.0000
  O2          0.08724      0.73761      0.56325  1.0000
  O2          0.75019      0.63554      0.39726  1.0000
  O2          0.32521      0.08429      0.72988  1.0000
  O2          0.89904      0.22954      0.06446  1.0000
  O2          0.30995      0.20290      0.43297  1.0000
  O2          0.90847      0.66957      0.10058  1.0000
  O2          0.75823      0.08139      0.76601  1.0000
  O2          0.66530      0.74940      0.93420  1.0000
  O2          0.09195      0.30695      0.59950  1.0000
  O2          0.21566      0.88715      0.26692  1.0000
  O2          0.57037      0.54374      0.98942  1.0000
  O2          0.41531      0.99136      0.32240  1.0000
  O2          0.97602      0.39729      0.65422  1.0000
  O2          0.40511      0.40301      0.48930  1.0000
  O2          0.55190      0.97200      0.82124  1.0000
  O2          0.01587      0.57404      0.15589  1.0000
  O3          0.55207      0.56671      0.34239  1.0000
  O3          0.02568      0.41756      0.00410  1.0000
  O2          0.41013      0.95916      0.67652  1.0000
  O3          0.42158      0.38957      0.83514  1.0000
  O3          0.96840      0.53891      0.50739  1.0000
  O3          0.58242      0.01003      0.17547  1.0000
  O3          0.56187      0.14169      0.25545  1.0000
  O3          0.82848      0.38916      0.58793  1.0000
  O3          0.57637      0.39740      0.92170  1.0000
  O2          0.41890      0.83559      0.75063  1.0000
  O3          0.17095      0.58039      0.08864  1.0000
  O3          0.39826      0.54593      0.42306  1.0000
  F           0.41151      0.85541      0.23962  1.0000
  F           0.11862      0.52927      0.57212  1.0000
  F           0.46448      0.52410      0.90460  1.0000
  F           0.56595      0.11640      0.74006  1.0000
  F           0.92895      0.46619      0.07175  1.0000
  F           0.53761      0.39824      0.40559  1.0000
