data_cif

_audit_creation_method             'generated by GULP'

_symmetry_space_group_name_H-M     'P 1'
_symmetry_Int_Tables_number        1
_symmetry_cell_setting             triclinic

_cell_length_a                       12.0830
_cell_length_b                       12.0836
_cell_length_c                       29.6788
_cell_angle_alpha                   90.1493
_cell_angle_beta                    90.0854
_cell_angle_gamma                  120.0446

loop_
_atom_site_label
_atom_site_fract_x
_atom_site_fract_y
_atom_site_fract_z
_atom_site_occupancy
  Ge          0.69960      0.37570      0.03389  1.0000
  Ge          0.65727      0.34473      0.36633  1.0000
  Si          0.69165      0.33755      0.69888  1.0000
  Si          0.33969      0.66261      0.53477  1.0000
  Si          0.36422      0.69332      0.86928  1.0000
  Ge          0.33953      0.69904      0.20255  1.0000
  Ge          0.41757      0.73881      0.30047  1.0000
  Ge          0.33583      0.61497      0.96589  1.0000
  Ge          0.30005      0.70036      0.63222  1.0000
  Ge          0.62488      0.30481      0.79695  1.0000
  Ge          0.70314      0.41742      0.46442  1.0000
  Ge          0.73412      0.33523      0.13195  1.0000
  Si          0.52590      0.41645      0.96676  1.0000
  Si          0.61760      0.12981      0.30025  1.0000
  Ge          0.91301      0.50497      0.63428  1.0000
  Si          0.51048      0.61740      0.47087  1.0000
  Ge          0.42516      0.91604      0.80376  1.0000
  Si          0.12557      0.52525      0.13518  1.0000
  Si          0.45669      0.56435      0.36815  1.0000
  Si          0.12081      0.57612      0.03239  1.0000
  Si          0.47500      0.91577      0.69896  1.0000
  Ge          0.56859      0.47308      0.86166  1.0000
  Si          0.91933      0.45682      0.52982  1.0000
  Si          0.55764      0.11855      0.19756  1.0000
  Si          0.28141      0.40959      0.85448  1.0000
  Si          0.62539      0.90140      0.18771  1.0000
  Si          0.13656      0.74228      0.52163  1.0000
  Si          0.74139      0.63201      0.35602  1.0000
  Si          0.40696      0.13386      0.69049  1.0000
  Si          0.90195      0.29106      0.02101  1.0000
  Si          0.43283      0.33198      0.48769  1.0000
  Si          0.92182      0.60748      0.15387  1.0000
  Si          0.71499      0.12601      0.82109  1.0000
  Si          0.60778      0.70296      0.98639  1.0000
  Si          0.12238      0.42833      0.65499  1.0000
  Si          0.33285      0.92726      0.32065  1.0000
  Si          0.24205      0.33568      0.95644  1.0000
  Si          0.69856      0.92784      0.28939  1.0000
  Si          0.11288      0.79340      0.62364  1.0000
  Si          0.79333      0.69958      0.45813  1.0000
  Si          0.34077      0.12102      0.79283  1.0000
  Si          0.92247      0.24217      0.12278  1.0000
  Si          0.37497      0.28244      0.38510  1.0000
  Si          0.92220      0.65890      0.05117  1.0000
  Si          0.75646      0.12147      0.71729  1.0000
  Si          0.64793      0.75787      0.88364  1.0000
  Si          0.12241      0.38131      0.55159  1.0000
  Si          0.27718      0.92087      0.21801  1.0000
  Si          0.97232      0.11227      0.96994  1.0000
  Si          0.91995      0.87867      0.30358  1.0000
  Si          0.16163      0.06625      0.63713  1.0000
  Si          0.06715      0.92128      0.47095  1.0000
  Si          0.10910      0.16199      0.80401  1.0000
  Si          0.87328      0.97099      0.13655  1.0000
  Si          0.15888      0.00780      0.36995  1.0000
  Si          0.86387      0.87467      0.03588  1.0000
  Si          0.03100      0.17298      0.70264  1.0000
  Si          0.87478      0.03248      0.86931  1.0000
  Si          0.17917      0.16304      0.53626  1.0000
  Si          0.00280      0.86255      0.20287  1.0000
  O2          0.93511      0.99326      0.00239  1.0000
  O2          0.04131      0.96029      0.33559  1.0000
  O2          0.07222      0.09678      0.66854  1.0000
  O2          0.10637      0.04326      0.50271  1.0000
  O2          0.99086      0.06747      0.83519  1.0000
  O2          0.95470      0.93231      0.16887  1.0000
  O3          0.38190      0.61012      0.33828  1.0000
  O3          0.43643      0.80136      0.66595  1.0000
  O3          0.23994      0.65171      0.00188  1.0000
  O1          0.66089      0.44184      0.82854  1.0000
  O3          0.60078      0.23767      0.16724  1.0000
  O3          0.80530      0.38140      0.49692  1.0000
  O3          0.57802      0.34084      0.99561  1.0000
  O3          0.76996      0.44717      0.66322  1.0000
  O3          0.69351      0.26077      0.32715  1.0000
  O2          0.45492      0.69196      0.50018  1.0000
  O3          0.25257      0.57627      0.16429  1.0000
  O3          0.33599      0.77796      0.83506  1.0000
  O2          0.12551      0.19785      0.97243  1.0000
  O2          0.83605      0.94818      0.30581  1.0000
  O2          0.09705      0.91387      0.63860  1.0000
  O2          0.91414      0.83409      0.47527  1.0000
  O2          0.20783      0.11063      0.80881  1.0000
  O2          0.94064      0.12421      0.13957  1.0000
  O2          0.24246      0.16125      0.36660  1.0000
  O2          0.93196      0.78971      0.03193  1.0000
  O2          0.87970      0.11930      0.69627  1.0000
  O2          0.77084      0.88398      0.86290  1.0000
  O2          0.12002      0.25595      0.53037  1.0000
  O2          0.15582      0.93001      0.19867  1.0000
  O2          0.96617      0.87847      0.25324  1.0000
  O2          0.16044      0.11328      0.58692  1.0000
  O2          0.92735      0.05997      0.91983  1.0000
  O2          0.06037      0.14912      0.75303  1.0000
  O2          0.87767      0.92673      0.08625  1.0000
  O2          0.10574      0.96684      0.42008  1.0000
  O2          0.90731      0.19577      0.98343  1.0000
  O2          0.83530      0.73181      0.31844  1.0000
  O2          0.30889      0.13410      0.65307  1.0000
  O2          0.13641      0.84091      0.48445  1.0000
  O2          0.17508      0.31086      0.81842  1.0000
  O2          0.72485      0.90518      0.15021  1.0000
  O2          0.24649      0.94639      0.35819  1.0000
  O2          0.71467      0.78975      0.02365  1.0000
  O2          0.11030      0.32327      0.69162  1.0000
  O2          0.81053      0.11761      0.85754  1.0000
  O2          0.32942      0.24300      0.52527  1.0000
  O2          0.93891      0.71264      0.19149  1.0000
  O1          0.33338      0.63636      0.25430  1.0000
  O3          0.39494      0.71546      0.58345  1.0000
  O3          0.31843      0.69964      0.91894  1.0000
  O3          0.70162      0.39620      0.74753  1.0000
  O1          0.63458      0.31910      0.08524  1.0000
  O1          0.71536      0.33388      0.41710  1.0000
  O2          0.37131      0.33662      0.97220  1.0000
  O2          0.69836      0.05647      0.30547  1.0000
  O3          0.98293      0.66951      0.63961  1.0000
  O2          0.66508      0.70033      0.47517  1.0000
  O3          0.33462      0.99079      0.80856  1.0000
  O2          0.05131      0.37071      0.13909  1.0000
  O2          0.37198      0.40850      0.37000  1.0000
  O2          0.04945      0.66055      0.03467  1.0000
  O2          0.63152      0.99236      0.70141  1.0000
  O3          0.65734      0.64041      0.86566  1.0000
  O2          0.99465      0.37629      0.53405  1.0000
  O2          0.40192      0.04669      0.20020  1.0000
  O3          0.76991      0.28794      0.01356  1.0000
  O3          0.74525      0.50386      0.34755  1.0000
  O2          0.54117      0.26426      0.68280  1.0000
  O2          0.26889      0.73971      0.51599  1.0000
  O2          0.28193      0.54385      0.85160  1.0000
  O3          0.49659      0.76819      0.18170  1.0000
  O3          0.33178      0.79883      0.33212  1.0000
  O3          0.47974      0.70166      0.99892  1.0000
  O3          0.25144      0.55771      0.66476  1.0000
  O3          0.71743      0.25621      0.83033  1.0000
  O3          0.56080      0.33059      0.49762  1.0000
  O3          0.79241      0.47990      0.16444  1.0000
  O3          0.79692      0.54159      0.03035  1.0000
  O3          0.49126      0.27625      0.36266  1.0000
  O2          0.75405      0.24409      0.69720  1.0000
  O2          0.24701      0.50759      0.53325  1.0000
  O2          0.51967      0.75413      0.86538  1.0000
  O3          0.26841      0.79391      0.19854  1.0000
  O3          0.58615      0.80448      0.31189  1.0000
  O3          0.23004      0.44741      0.97900  1.0000
  O3          0.23620      0.80335      0.64624  1.0000
  O3          0.45818      0.24459      0.81413  1.0000
  O3          0.80319      0.58491      0.47886  1.0000
  O3          0.79888      0.23216      0.14466  1.0000
  O2          0.22906      0.33543      0.90170  1.0000
  O2          0.69924      0.91596      0.23480  1.0000
  O2          0.12708      0.80328      0.56873  1.0000
  O2          0.80343      0.70316      0.40338  1.0000
  O2          0.34056      0.13123      0.73777  1.0000
  O2          0.91180      0.22929      0.06811  1.0000
  O2          0.36958      0.26644      0.43940  1.0000
  O2          0.91727      0.66871      0.10558  1.0000
  O2          0.77365      0.12582      0.77133  1.0000
  O2          0.66336      0.77247      0.93804  1.0000
  O2          0.12305      0.36745      0.60566  1.0000
  O2          0.26516      0.92020      0.27243  1.0000
  O2          0.58949      0.55991      0.98799  1.0000
  O2          0.47753      0.04908      0.32348  1.0000
  O3          0.99807      0.44397      0.66086  1.0000
  O2          0.45520      0.47620      0.49193  1.0000
  O3          0.57481      0.00248      0.82805  1.0000
  O2          0.04298      0.58401      0.15741  1.0000
  O2          0.59703      0.60256      0.34893  1.0000
  O2          0.01704      0.43508      0.01372  1.0000
  O2          0.42766      0.01421      0.68315  1.0000
  O3          0.41857      0.43377      0.84101  1.0000
  O2          0.01964      0.60099      0.51287  1.0000
  O2          0.59457      0.01469      0.17894  1.0000
  O2          0.61227      0.16314      0.24834  1.0000
  O3          0.86833      0.46050      0.57960  1.0000
  O3          0.56159      0.41343      0.91536  1.0000
  O3          0.42373      0.86691      0.74935  1.0000
  O2          0.16385      0.56677      0.08358  1.0000
  O2          0.46844      0.61661      0.41957  1.0000
  F           0.46552      0.87463      0.25987  1.0000
  F           0.15370      0.60734      0.59699  1.0000
  F           0.42223      0.56296      0.92780  1.0000
  F           0.56421      0.15646      0.76356  1.0000
  F           0.87239      0.42309      0.09265  1.0000
  F           0.61268      0.46819      0.42624  1.0000
