data_cif

_audit_creation_method             'generated by GULP'

_symmetry_space_group_name_H-M     'P 1'
_symmetry_Int_Tables_number        1
_symmetry_cell_setting             triclinic

_cell_length_a                       12.0918
_cell_length_b                       12.0651
_cell_length_c                       29.7181
_cell_angle_alpha                   90.0923
_cell_angle_beta                    89.3645
_cell_angle_gamma                  119.9667

loop_
_atom_site_label
_atom_site_fract_x
_atom_site_fract_y
_atom_site_fract_z
_atom_site_occupancy
  Ge          0.69960      0.37570      0.03389  1.0000
  Ge          0.62445      0.33842      0.36847  1.0000
  Ge          0.69424      0.30505      0.69858  1.0000
  Ge          0.30997      0.62405      0.53907  1.0000
  Ge          0.39515      0.67649      0.87173  1.0000
  Ge          0.32753      0.69684      0.20367  1.0000
  Ge          0.39330      0.71811      0.30084  1.0000
  Ge          0.32748      0.62609      0.96952  1.0000
  Ge          0.32171      0.68456      0.63762  1.0000
  Ge          0.62984      0.29458      0.79649  1.0000
  Si          0.70174      0.37105      0.46478  1.0000
  Ge          0.71638      0.32728      0.13204  1.0000
  Si          0.53692      0.42030      0.96351  1.0000
  Si          0.58988      0.12142      0.30320  1.0000
  Si          0.90788      0.47006      0.62931  1.0000
  Ge          0.48210      0.57609      0.47128  1.0000
  Si          0.43291      0.89855      0.80921  1.0000
  Si          0.10971      0.52259      0.13919  1.0000
  Si          0.42841      0.53654      0.36609  1.0000
  Si          0.11214      0.57999      0.03706  1.0000
  Si          0.48685      0.89294      0.70666  1.0000
  Si          0.59212      0.47682      0.86083  1.0000
  Si          0.91941      0.42036      0.52724  1.0000
  Si          0.53814      0.11396      0.20001  1.0000
  Si          0.30643      0.40443      0.84835  1.0000
  Si          0.60950      0.89863      0.18799  1.0000
  Si          0.12610      0.70880      0.51340  1.0000
  Si          0.71505      0.61123      0.34886  1.0000
  Si          0.40914      0.09941      0.68767  1.0000
  Si          0.90529      0.29532      0.02036  1.0000
  Si          0.41891      0.28870      0.48065  1.0000
  Si          0.90150      0.60091      0.15488  1.0000
  Si          0.71866      0.11138      0.82048  1.0000
  Si          0.61246      0.70549      0.98072  1.0000
  Si          0.11720      0.39573      0.64628  1.0000
  Si          0.30493      0.90611      0.31873  1.0000
  Si          0.25533      0.34162      0.95055  1.0000
  Si          0.67297      0.92011      0.28950  1.0000
  Si          0.10836      0.75347      0.61596  1.0000
  Si          0.76631      0.65478      0.45129  1.0000
  Si          0.34910      0.09646      0.78979  1.0000
  Si          0.91108      0.24042      0.12228  1.0000
  Si          0.34703      0.25134      0.37890  1.0000
  Si          0.91079      0.66019      0.05254  1.0000
  Si          0.76849      0.09517      0.71838  1.0000
  Si          0.67523      0.75977      0.87864  1.0000
  Si          0.11997      0.33888      0.54378  1.0000
  Si          0.25647      0.91095      0.21664  1.0000
  Si          0.98286      0.12127      0.96859  1.0000
  Si          0.89162      0.86718      0.30085  1.0000
  Si          0.16214      0.02601      0.63420  1.0000
  Si          0.04043      0.87713      0.46713  1.0000
  Si          0.13113      0.15223      0.80023  1.0000
  Si          0.85794      0.96816      0.13518  1.0000
  Si          0.12603      0.98110      0.36764  1.0000
  Si          0.85889      0.88000      0.03397  1.0000
  Si          0.04012      0.14564      0.69944  1.0000
  Si          0.89355      0.03382      0.86796  1.0000
  Si          0.17036      0.11420      0.53244  1.0000
  Si          0.98348      0.85720      0.20128  1.0000
  O2          0.94188      0.00134      0.00162  1.0000
  O2          0.00881      0.93696      0.33439  1.0000
  O2          0.07928      0.06435      0.66669  1.0000
  O2          0.08037      0.98873      0.50382  1.0000
  O2          0.01162      0.08206      0.83375  1.0000
  O2          0.93963      0.92476      0.16469  1.0000
  O3          0.35541      0.58704      0.33711  1.0000
  O3          0.43482      0.76466      0.67904  1.0000
  O3          0.23957      0.65863      0.00885  1.0000
  O3          0.66696      0.43003      0.83064  1.0000
  O3          0.58459      0.23297      0.16828  1.0000
  O2          0.79184      0.34315      0.49807  1.0000
  O3          0.58449      0.34379      0.99300  1.0000
  O3          0.78032      0.42068      0.65733  1.0000
  O3          0.66316      0.24401      0.33258  1.0000
  O1          0.44452      0.66177      0.50617  1.0000
  O3          0.23529      0.57035      0.16679  1.0000
  O3          0.35763      0.77637      0.83877  1.0000
  O2          0.13602      0.20978      0.97028  1.0000
  O2          0.80917      0.93778      0.30594  1.0000
  O2          0.09414      0.87215      0.63516  1.0000
  O2          0.89060      0.77781      0.47265  1.0000
  O2          0.21383      0.08237      0.80634  1.0000
  O2          0.92791      0.12159      0.13887  1.0000
  O2          0.20816      0.13437      0.36399  1.0000
  O2          0.92467      0.79228      0.03283  1.0000
  O2          0.88689      0.08088      0.69877  1.0000
  O2          0.81055      0.88103      0.86204  1.0000
  O2          0.11057      0.20668      0.52680  1.0000
  O2          0.13602      0.92065      0.19704  1.0000
  O2          0.94473      0.88093      0.25033  1.0000
  O2          0.16390      0.07639      0.58450  1.0000
  O2          0.94236      0.06947      0.91850  1.0000
  O2          0.08438      0.13995      0.74939  1.0000
  O2          0.85854      0.92813      0.08381  1.0000
  O2          0.07258      0.93896      0.41805  1.0000
  O2          0.91734      0.20476      0.98227  1.0000
  O2          0.80501      0.71749      0.31185  1.0000
  O2          0.30794      0.08722      0.64995  1.0000
  O2          0.11547      0.80012      0.47604  1.0000
  O2          0.21614      0.30245      0.81085  1.0000
  O2          0.71081      0.90432      0.15023  1.0000
  O2          0.21260      0.91845      0.35593  1.0000
  O2          0.71282      0.79633      0.01839  1.0000
  O2          0.10458      0.29292      0.68405  1.0000
  O2          0.80908      0.09986      0.85781  1.0000
  O2          0.31866      0.18411      0.51726  1.0000
  O2          0.91610      0.70540      0.19212  1.0000
  O1          0.31779      0.62191      0.25319  1.0000
  O1          0.39930      0.69888      0.58862  1.0000
  O1          0.31928      0.69367      0.92065  1.0000
  O1          0.70378      0.38493      0.74681  1.0000
  O1          0.62371      0.30971      0.08327  1.0000
  O3          0.70586      0.31897      0.41642  1.0000
  O2          0.38217      0.34063      0.96622  1.0000
  O2          0.67399      0.04934      0.30392  1.0000
  O2          0.97996      0.62483      0.63128  1.0000
  O3          0.64919      0.66375      0.47029  1.0000
  O2          0.34840      0.96993      0.80777  1.0000
  O2          0.03686      0.36743      0.13979  1.0000
  O2          0.34613      0.38017      0.36491  1.0000
  O2          0.03746      0.65984      0.03503  1.0000
  O2          0.64117      0.96771      0.70238  1.0000
  O2          0.67618      0.63297      0.86162  1.0000
  O2          0.99249      0.33835      0.52575  1.0000
  O2          0.38230      0.03831      0.19938  1.0000
  O3          0.77615      0.29590      0.01123  1.0000
  O3          0.71706      0.48405      0.33721  1.0000
  O3          0.53930      0.22774      0.67641  1.0000
  O3          0.25805      0.71443      0.50638  1.0000
  O3          0.30205      0.53231      0.84073  1.0000
  O3          0.48109      0.76695      0.17906  1.0000
  O3          0.30115      0.77526      0.32927  1.0000
  O3          0.48248      0.70426      0.99160  1.0000
  O3          0.24466      0.52529      0.65730  1.0000
  O3          0.72469      0.24485      0.82687  1.0000
  O2          0.55469      0.29172      0.48535  1.0000
  O3          0.77010      0.47312      0.16279  1.0000
  O3          0.78696      0.54320      0.03161  1.0000
  O3          0.45741      0.23852      0.35509  1.0000
  O3          0.77538      0.21855      0.69650  1.0000
  O3          0.24566      0.45627      0.52440  1.0000
  O3          0.56184      0.77234      0.85800  1.0000
  O3          0.24940      0.78509      0.19667  1.0000
  O3          0.56003      0.79594      0.31235  1.0000
  O3          0.24902      0.45863      0.97237  1.0000
  O3          0.22895      0.75883      0.63904  1.0000
  O3          0.46307      0.22379      0.80956  1.0000
  O2          0.76293      0.52587      0.46866  1.0000
  O3          0.78426      0.22745      0.14285  1.0000
  O2          0.24239      0.33535      0.89637  1.0000
  O2          0.67730      0.90421      0.23507  1.0000
  O2          0.11858      0.76889      0.56195  1.0000
  O2          0.78160      0.67104      0.39718  1.0000
  O2          0.34408      0.10179      0.73502  1.0000
  O2          0.90754      0.23054      0.06747  1.0000
  O2          0.34844      0.23297      0.43348  1.0000
  O2          0.90642      0.66836      0.10667  1.0000
  O2          0.78050      0.10169      0.77252  1.0000
  O2          0.67851      0.77211      0.93334  1.0000
  O2          0.11942      0.33201      0.59873  1.0000
  O2          0.24043      0.90591      0.27085  1.0000
  O2          0.58879      0.56157      0.98472  1.0000
  O2          0.44840      0.02441      0.32356  1.0000
  O2          0.99745      0.42001      0.65108  1.0000
  O3          0.43859      0.42513      0.49256  1.0000
  O2          0.57344      0.99720      0.82872  1.0000
  O2          0.01911      0.57324      0.16057  1.0000
  O2          0.57198      0.58951      0.34589  1.0000
  O2          0.02407      0.43991      0.01504  1.0000
  O2          0.43314      0.97914      0.68417  1.0000
  O2          0.45105      0.43258      0.84138  1.0000
  O2          0.00859      0.56272      0.50718  1.0000
  O2          0.58379      0.01614      0.18138  1.0000
  O2          0.58326      0.15797      0.25110  1.0000
  O2          0.87281      0.42264      0.57811  1.0000
  O2          0.58295      0.42617      0.91218  1.0000
  O2          0.44375      0.85673      0.75812  1.0000
  O2          0.15068      0.57174      0.08788  1.0000
  O3          0.42925      0.57605      0.41796  1.0000
  F           0.43892      0.85757      0.25678  1.0000
  F           0.16450      0.56901      0.57625  1.0000
  F           0.44233      0.58082      0.91091  1.0000
  F           0.58227      0.14960      0.75727  1.0000
  F           0.85923      0.42171      0.09164  1.0000
  F           0.57427      0.42627      0.40762  1.0000
