data_cif

_audit_creation_method             'generated by GULP'

_symmetry_space_group_name_H-M     'P 1'
_symmetry_Int_Tables_number        1
_symmetry_cell_setting             triclinic

_cell_length_a                       12.0771
_cell_length_b                       12.0766
_cell_length_c                       29.7370
_cell_angle_alpha                   88.5036
_cell_angle_beta                    90.5251
_cell_angle_gamma                  120.0337

loop_
_atom_site_label
_atom_site_fract_x
_atom_site_fract_y
_atom_site_fract_z
_atom_site_occupancy
  Ge          0.69960      0.37570      0.03389  1.0000
  Si          0.61036      0.31679      0.36742  1.0000
  Ge          0.66292      0.27096      0.70532  1.0000
  Ge          0.26446      0.60015      0.53919  1.0000
  Ge          0.37841      0.66267      0.87417  1.0000
  Si          0.31542      0.69154      0.20341  1.0000
  Si          0.37111      0.68978      0.30554  1.0000
  Si          0.30402      0.61745      0.97248  1.0000
  Si          0.30128      0.66720      0.63712  1.0000
  Si          0.62734      0.30470      0.80261  1.0000
  Ge          0.65659      0.37120      0.47092  1.0000
  Si          0.68841      0.30550      0.13704  1.0000
  Si          0.51637      0.41018      0.96986  1.0000
  Ge          0.57517      0.10766      0.30307  1.0000
  Si          0.88038      0.45579      0.64114  1.0000
  Si          0.44357      0.57714      0.47096  1.0000
  Si          0.41640      0.88189      0.80759  1.0000
  Si          0.10843      0.51744      0.13962  1.0000
  Ge          0.41998      0.51574      0.37261  1.0000
  Ge          0.08514      0.55931      0.04024  1.0000
  Ge          0.46478      0.88309      0.70301  1.0000
  Ge          0.56982      0.46837      0.86584  1.0000
  Ge          0.87798      0.40918      0.53699  1.0000
  Ge          0.51603      0.08512      0.20423  1.0000
  Si          0.28327      0.39368      0.84831  1.0000
  Si          0.59609      0.89221      0.18375  1.0000
  Si          0.08632      0.69639      0.51683  1.0000
  Si          0.69080      0.59925      0.34984  1.0000
  Si          0.39093      0.09616      0.68286  1.0000
  Si          0.89776      0.28971      0.01588  1.0000
  Si          0.37138      0.28810      0.48156  1.0000
  Si          0.89398      0.58804      0.14936  1.0000
  Si          0.70364      0.09830      0.81425  1.0000
  Si          0.58956      0.69461      0.98142  1.0000
  Si          0.09572      0.38423      0.64917  1.0000
  Si          0.28797      0.89054      0.31710  1.0000
  Si          0.23822      0.33726      0.95171  1.0000
  Si          0.65510      0.90560      0.28620  1.0000
  Si          0.08654      0.73612      0.62011  1.0000
  Si          0.72627      0.65649      0.45242  1.0000
  Si          0.34483      0.09059      0.78630  1.0000
  Si          0.90532      0.24009      0.11943  1.0000
  Si          0.32189      0.23669      0.37943  1.0000
  Si          0.90901      0.66266      0.04758  1.0000
  Si          0.75443      0.08170      0.71259  1.0000
  Si          0.65959      0.75527      0.87948  1.0000
  Si          0.07561      0.31871      0.54763  1.0000
  Si          0.23760      0.90060      0.21489  1.0000
  Si          0.96348      0.11423      0.96607  1.0000
  Si          0.87254      0.84058      0.29830  1.0000
  Si          0.13872      0.01017      0.63322  1.0000
  Si          0.00550      0.86961      0.46514  1.0000
  Si          0.12189      0.14232      0.79979  1.0000
  Si          0.83881      0.95766      0.13266  1.0000
  Si          0.10689      0.95525      0.36449  1.0000
  Si          0.83669      0.87325      0.03204  1.0000
  Si          0.02820      0.13306      0.69916  1.0000
  Si          0.88353      0.02913      0.86523  1.0000
  Si          0.12569      0.09889      0.53263  1.0000
  Si          0.95602      0.83172      0.19782  1.0000
  O2          0.91948      0.98882      0.99716  1.0000
  O2          0.99676      0.92641      0.32813  1.0000
  O2          0.05953      0.05153      0.66496  1.0000
  O2          0.04929      0.98999      0.49670  1.0000
  O2          0.00060      0.06132      0.83216  1.0000
  O2          0.92246      0.91241      0.16184  1.0000
  O3          0.33661      0.57160      0.33624  1.0000
  O3          0.41169      0.74505      0.67226  1.0000
  O3          0.22858      0.64651      0.00809  1.0000
  O3          0.65795      0.41571      0.83671  1.0000
  O3          0.57046      0.22247      0.16742  1.0000
  O1          0.74071      0.32783      0.50568  1.0000
  O3          0.56222      0.33516      0.00239  1.0000
  O3          0.76546      0.41395      0.67374  1.0000
  O3          0.65266      0.23221      0.34039  1.0000
  O3          0.40295      0.64481      0.50603  1.0000
  O2          0.22425      0.56299      0.17580  1.0000
  O3          0.34205      0.76732      0.84111  1.0000
  O2          0.11503      0.21020      0.97270  1.0000
  O2          0.77679      0.89561      0.30476  1.0000
  O2          0.08587      0.85899      0.64097  1.0000
  O2          0.85227      0.78409      0.47034  1.0000
  O2          0.22077      0.09035      0.80728  1.0000
  O2          0.89850      0.10995      0.13935  1.0000
  O2          0.20503      0.10607      0.36026  1.0000
  O2          0.90356      0.78805      0.03099  1.0000
  O2          0.87563      0.06803      0.69731  1.0000
  O2          0.79526      0.87690      0.86375  1.0000
  O2          0.05536      0.18143      0.53273  1.0000
  O2          0.10745      0.88921      0.19497  1.0000
  O2          0.91290      0.84893      0.24658  1.0000
  O2          0.11994      0.03685      0.58149  1.0000
  O2          0.93663      0.07453      0.91471  1.0000
  O2          0.07544      0.12164      0.74861  1.0000
  O2          0.84544      0.93011      0.08078  1.0000
  O2          0.04471      0.91633      0.41379  1.0000
  O2          0.88562      0.18399      0.98019  1.0000
  O2          0.80370      0.69270      0.31451  1.0000
  O2          0.28761      0.08970      0.64607  1.0000
  O2          0.07571      0.79211      0.48012  1.0000
  O2          0.18904      0.29131      0.81169  1.0000
  O2          0.69086      0.87939      0.14812  1.0000
  O2          0.18269      0.88016      0.35371  1.0000
  O2          0.68730      0.78892      0.01919  1.0000
  O2          0.09606      0.28394      0.68657  1.0000
  O2          0.80268      0.09812      0.85149  1.0000
  O2          0.27372      0.19011      0.51954  1.0000
  O2          0.88814      0.68111      0.18680  1.0000
  O2          0.32532      0.64710      0.25384  1.0000
  O3          0.35644      0.67518      0.58814  1.0000
  O3          0.30078      0.67178      0.92293  1.0000
  O3          0.67740      0.36237      0.75363  1.0000
  O3          0.64294      0.31328      0.08640  1.0000
  O3          0.66476      0.32572      0.41723  1.0000
  O2          0.36134      0.32791      0.96805  1.0000
  O3          0.67272      0.03765      0.30330  1.0000
  O2          0.95713      0.61230      0.63723  1.0000
  O2          0.60196      0.66386      0.46668  1.0000
  O2          0.33796      0.96020      0.80338  1.0000
  O2          0.03490      0.36033      0.13893  1.0000
  O3          0.30970      0.35200      0.35884  1.0000
  O3          0.03887      0.67753      0.02953  1.0000
  O3          0.62955      0.95287      0.69731  1.0000
  O3          0.66431      0.63310      0.86137  1.0000
  O3          0.94692      0.31476      0.53107  1.0000
  O3          0.35050      0.02939      0.19394  1.0000
  O3          0.76762      0.29456      0.00971  1.0000
  O2          0.67830      0.45967      0.34458  1.0000
  O3          0.52117      0.22473      0.67254  1.0000
  O3          0.21433      0.69545      0.50679  1.0000
  O3          0.28430      0.52412      0.84016  1.0000
  O2          0.45643      0.76268      0.18012  1.0000
  O2          0.29340      0.76033      0.32196  1.0000
  O2          0.45654      0.69232      0.98742  1.0000
  O2          0.22858      0.51693      0.65465  1.0000
  O2          0.70338      0.23087      0.82017  1.0000
  O3          0.49948      0.28267      0.48875  1.0000
  O2          0.76409      0.45308      0.15423  1.0000
  O3          0.78521      0.54007      0.02707  1.0000
  O2          0.45481      0.24336      0.36431  1.0000
  O3          0.76416      0.20682      0.69019  1.0000
  O3          0.20060      0.43363      0.52565  1.0000
  O3          0.54515      0.76855      0.85932  1.0000
  O2          0.24782      0.77797      0.19914  1.0000
  O2          0.52350      0.79219      0.30700  1.0000
  O2          0.24572      0.46204      0.97187  1.0000
  O2          0.20957      0.73153      0.63911  1.0000
  O2          0.47119      0.21280      0.80531  1.0000
  O3          0.72224      0.53430      0.47618  1.0000
  O2          0.78495      0.24808      0.13719  1.0000
  O2          0.22367      0.32830      0.89769  1.0000
  O2          0.66304      0.89937      0.23213  1.0000
  O2          0.08842      0.75481      0.56611  1.0000
  O2          0.74831      0.65989      0.39880  1.0000
  O2          0.33185      0.09603      0.73223  1.0000
  O2          0.90676      0.23164      0.06546  1.0000
  O2          0.30508      0.22744      0.43400  1.0000
  O2          0.90128      0.66074      0.10232  1.0000
  O2          0.76540      0.09163      0.76737  1.0000
  O2          0.66134      0.75860      0.93447  1.0000
  O2          0.08553      0.31563      0.60244  1.0000
  O2          0.22809      0.90215      0.26924  1.0000
  O2          0.56728      0.55213      0.98921  1.0000
  O3          0.42362      0.01132      0.32724  1.0000
  O2          0.97967      0.40939      0.65779  1.0000
  O2          0.40143      0.43141      0.48916  1.0000
  O2          0.56228      0.98112      0.82293  1.0000
  O2          0.01527      0.56862      0.15797  1.0000
  O3          0.56323      0.59943      0.33823  1.0000
  O3          0.02262      0.42230      0.00490  1.0000
  O3          0.40341      0.97039      0.67705  1.0000
  O3          0.42254      0.40801      0.84062  1.0000
  O3          0.95985      0.55836      0.51065  1.0000
  O3          0.58976      0.01673      0.17117  1.0000
  O1          0.58314      0.17890      0.25220  1.0000
  O3          0.82983      0.40531      0.59119  1.0000
  O3          0.57055      0.41690      0.92039  1.0000
  O3          0.41817      0.83350      0.75743  1.0000
  O3          0.16879      0.57436      0.09166  1.0000
  O3          0.38829      0.57644      0.42163  1.0000
  F           0.46545      0.94237      0.24481  1.0000
  F           0.11492      0.54237      0.57394  1.0000
  F           0.43543      0.56503      0.90612  1.0000
  F           0.56946      0.12177      0.74034  1.0000
  F           0.93017      0.46448      0.07343  1.0000
  F           0.51058      0.45810      0.40796  1.0000
