data_cif

_audit_creation_method             'generated by GULP'

_symmetry_space_group_name_H-M     'P 1'
_symmetry_Int_Tables_number        1
_symmetry_cell_setting             triclinic

_cell_length_a                       12.0947
_cell_length_b                       12.0774
_cell_length_c                       29.7358
_cell_angle_alpha                   90.2210
_cell_angle_beta                    88.6663
_cell_angle_gamma                  120.1744

loop_
_atom_site_label
_atom_site_fract_x
_atom_site_fract_y
_atom_site_fract_z
_atom_site_occupancy
  Si          0.69960      0.37570      0.03389  1.0000
  Ge          0.60699      0.32338      0.36793  1.0000
  Ge          0.66439      0.27015      0.70382  1.0000
  Ge          0.27907      0.59926      0.53627  1.0000
  Si          0.37355      0.67479      0.86713  1.0000
  Ge          0.33373      0.71301      0.20629  1.0000
  Ge          0.37254      0.69075      0.30464  1.0000
  Si          0.31486      0.61963      0.96962  1.0000
  Ge          0.30487      0.67154      0.63404  1.0000
  Si          0.62873      0.31969      0.80065  1.0000
  Ge          0.67899      0.35763      0.46551  1.0000
  Si          0.70740      0.32645      0.13555  1.0000
  Ge          0.53114      0.41826      0.96918  1.0000
  Si          0.57204      0.11155      0.29984  1.0000
  Si          0.88242      0.44786      0.63563  1.0000
  Si          0.46181      0.55956      0.47228  1.0000
  Ge          0.42536      0.89824      0.80476  1.0000
  Ge          0.12729      0.54766      0.13616  1.0000
  Si          0.40801      0.51429      0.36990  1.0000
  Ge          0.09294      0.57405      0.03632  1.0000
  Si          0.47573      0.88361      0.70059  1.0000
  Ge          0.57122      0.47992      0.86982  1.0000
  Si          0.88709      0.39569      0.53291  1.0000
  Si          0.52419      0.10638      0.19728  1.0000
  Si          0.29672      0.39515      0.84898  1.0000
  Si          0.60476      0.89991      0.18266  1.0000
  Si          0.09289      0.68328      0.51449  1.0000
  Si          0.69381      0.59803      0.34827  1.0000
  Si          0.39393      0.08730      0.68225  1.0000
  Si          0.90353      0.29989      0.01476  1.0000
  Si          0.39260      0.27417      0.48147  1.0000
  Si          0.90186      0.60971      0.14796  1.0000
  Si          0.71114      0.11709      0.81490  1.0000
  Si          0.59856      0.70481      0.98214  1.0000
  Si          0.10180      0.38376      0.64645  1.0000
  Si          0.28621      0.89250      0.31260  1.0000
  Si          0.24879      0.33653      0.95178  1.0000
  Si          0.65623      0.91212      0.28505  1.0000
  Si          0.08314      0.73092      0.61713  1.0000
  Si          0.74296      0.64294      0.45074  1.0000
  Si          0.34439      0.09886      0.78520  1.0000
  Si          0.92380      0.26166      0.11676  1.0000
  Si          0.32551      0.23060      0.38007  1.0000
  Si          0.90564      0.66458      0.04542  1.0000
  Si          0.75883      0.08565      0.71314  1.0000
  Si          0.66090      0.75901      0.87964  1.0000
  Si          0.08975      0.31656      0.54497  1.0000
  Si          0.23991      0.90384      0.21036  1.0000
  Si          0.96596      0.11966      0.96491  1.0000
  Si          0.87131      0.85406      0.29862  1.0000
  Si          0.14162      0.00544      0.63294  1.0000
  Si          0.01611      0.85859      0.46580  1.0000
  Si          0.12135      0.15325      0.79922  1.0000
  Si          0.85721      0.98102      0.13125  1.0000
  Si          0.10465      0.96051      0.36511  1.0000
  Si          0.84236      0.88207      0.03087  1.0000
  Si          0.03038      0.13516      0.69864  1.0000
  Si          0.88032      0.04159      0.86417  1.0000
  Si          0.14066      0.09493      0.53235  1.0000
  Si          0.96746      0.85694      0.19745  1.0000
  O2          0.92733      0.99626      0.99584  1.0000
  O2          0.98697      0.92262      0.33272  1.0000
  O2          0.06862      0.05182      0.66686  1.0000
  O2          0.06238      0.97518      0.50009  1.0000
  O2          0.99751      0.06776      0.83076  1.0000
  O2          0.93516      0.94006      0.16382  1.0000
  O3          0.33357      0.57110      0.34443  1.0000
  O3          0.42488      0.75616      0.67224  1.0000
  O3          0.22933      0.65528      0.99839  1.0000
  O3          0.65821      0.43159      0.83363  1.0000
  O2          0.58252      0.23550      0.16656  1.0000
  O3          0.76306      0.32050      0.50345  1.0000
  O3          0.57280      0.33645      0.00779  1.0000
  O3          0.76153      0.40195      0.66636  1.0000
  O3          0.64461      0.23299      0.32908  1.0000
  O3          0.41721      0.63579      0.50244  1.0000
  O1          0.24043      0.57923      0.17355  1.0000
  O3          0.33810      0.76423      0.83877  1.0000
  O2          0.11687      0.21536      0.97116  1.0000
  O2          0.78800      0.92408      0.30320  1.0000
  O2          0.07237      0.85182      0.63641  1.0000
  O2          0.86290      0.77263      0.47043  1.0000
  O2          0.22142      0.10369      0.80574  1.0000
  O2          0.91835      0.13293      0.13596  1.0000
  O2          0.18882      0.11435      0.36363  1.0000
  O2          0.89161      0.78157      0.02616  1.0000
  O2          0.87696      0.06510      0.69760  1.0000
  O2          0.77724      0.89241      0.86006  1.0000
  O2          0.07390      0.18087      0.52849  1.0000
  O2          0.12050      0.91753      0.19319  1.0000
  O2          0.92663      0.86841      0.24813  1.0000
  O2          0.13140      0.04622      0.58287  1.0000
  O2          0.93436      0.07591      0.91384  1.0000
  O2          0.07865      0.13573      0.74824  1.0000
  O2          0.86582      0.93984      0.08056  1.0000
  O2          0.05459      0.91186      0.41537  1.0000
  O2          0.88693      0.18954      0.97927  1.0000
  O2          0.78249      0.70435      0.31052  1.0000
  O2          0.28985      0.06894      0.64527  1.0000
  O2          0.07922      0.77233      0.47688  1.0000
  O2          0.18918      0.30242      0.81313  1.0000
  O2          0.70862      0.91159      0.14518  1.0000
  O2          0.19012      0.89904      0.34997  1.0000
  O2          0.69231      0.80929      0.01892  1.0000
  O2          0.09415      0.28276      0.68393  1.0000
  O2          0.81356      0.12428      0.85140  1.0000
  O2          0.29056      0.17737      0.51908  1.0000
  O2          0.89369      0.70717      0.18431  1.0000
  O1          0.31791      0.61923      0.25471  1.0000
  O1          0.37456      0.68293      0.58292  1.0000
  O2          0.32055      0.66507      0.91769  1.0000
  O3          0.67830      0.36942      0.75026  1.0000
  O2          0.65929      0.32532      0.08537  1.0000
  O1          0.68788      0.30274      0.41362  1.0000
  O3          0.36350      0.32035      0.96941  1.0000
  O2          0.65760      0.04140      0.29914  1.0000
  O2          0.95418      0.60433      0.63329  1.0000
  O2          0.61767      0.64355      0.46926  1.0000
  O3          0.33167      0.96903      0.80423  1.0000
  O3          0.05259      0.37738      0.13290  1.0000
  O2          0.32770      0.36019      0.36407  1.0000
  O3          0.03560      0.68225      0.02504  1.0000
  O2          0.63078      0.95708      0.69688  1.0000
  O3          0.67922      0.64756      0.85972  1.0000
  O2          0.96153      0.31551      0.52903  1.0000
  O2          0.37000      0.03414      0.19321  1.0000
  O2          0.77316      0.30746      0.01131  1.0000
  O3          0.69505      0.47069      0.33654  1.0000
  O3          0.52253      0.21578      0.67099  1.0000
  O3          0.22339      0.68608      0.50388  1.0000
  O2          0.30607      0.53414      0.84452  1.0000
  O3          0.47904      0.76971      0.17338  1.0000
  O3          0.28283      0.76156      0.32267  1.0000
  O2          0.46186      0.69671      0.98719  1.0000
  O3          0.23318      0.51287      0.65430  1.0000
  O2          0.70795      0.24838      0.81744  1.0000
  O3          0.52055      0.26895      0.48672  1.0000
  O2          0.77096      0.47117      0.15440  1.0000
  O2          0.78368      0.53087      0.02903  1.0000
  O3          0.43894      0.21975      0.35736  1.0000
  O3          0.77271      0.21019      0.69091  1.0000
  O3          0.21464      0.43153      0.52302  1.0000
  O2          0.52876      0.74794      0.86228  1.0000
  O3          0.23400      0.78038      0.19023  1.0000
  O3          0.53832      0.79011      0.30823  1.0000
  O2          0.26454      0.46715      0.97211  1.0000
  O3          0.20664      0.73886      0.63823  1.0000
  O2          0.47356      0.21811      0.80317  1.0000
  O3          0.75065      0.52389      0.46956  1.0000
  O2          0.80355      0.27119      0.13802  1.0000
  O2          0.23571      0.32806      0.89768  1.0000
  O2          0.66524      0.90047      0.23102  1.0000
  O2          0.09373      0.74768      0.56282  1.0000
  O2          0.75859      0.65720      0.39639  1.0000
  O2          0.33217      0.09335      0.73103  1.0000
  O2          0.91086      0.24082      0.06303  1.0000
  O2          0.32103      0.21679      0.43459  1.0000
  O2          0.90571      0.67482      0.10002  1.0000
  O2          0.76634      0.09504      0.76784  1.0000
  O2          0.66881      0.76706      0.93417  1.0000
  O2          0.09658      0.31337      0.59952  1.0000
  O2          0.22603      0.89770      0.26510  1.0000
  O3          0.58570      0.56963      0.99268  1.0000
  O2          0.42979      0.00923      0.31887  1.0000
  O2          0.98563      0.41111      0.65379  1.0000
  O2          0.42378      0.41830      0.49101  1.0000
  O3          0.57226      0.99821      0.82740  1.0000
  O3          0.01989      0.59389      0.15827  1.0000
  O2          0.54937      0.57519      0.34609  1.0000
  O3          0.02776      0.43081      0.00246  1.0000
  O2          0.41481      0.96402      0.67896  1.0000
  O3          0.42847      0.40360      0.83707  1.0000
  O2          0.97210      0.53823      0.51099  1.0000
  O2          0.58244      0.02155      0.17719  1.0000
  O2          0.56398      0.15070      0.24814  1.0000
  O2          0.84384      0.39704      0.58437  1.0000
  O1          0.59652      0.41258      0.91880  1.0000
  O3          0.43105      0.84261      0.75204  1.0000
  O1          0.18855      0.60826      0.08385  1.0000
  O2          0.41005      0.54998      0.42189  1.0000
  F           0.41937      0.85602      0.24343  1.0000
  F           0.13756      0.54681      0.57555  1.0000
  F           0.47635      0.52824      0.90981  1.0000
  F           0.57370      0.12680      0.74055  1.0000
  F           0.94978      0.48103      0.07522  1.0000
  F           0.55718      0.41004      0.40908  1.0000
