data_cif

_audit_creation_method             'generated by GULP'

_symmetry_space_group_name_H-M     'P 1'
_symmetry_Int_Tables_number        1
_symmetry_cell_setting             triclinic

_cell_length_a                       12.0886
_cell_length_b                       12.0769
_cell_length_c                       29.7021
_cell_angle_alpha                   89.8887
_cell_angle_beta                    90.0567
_cell_angle_gamma                  119.9668

loop_
_atom_site_label
_atom_site_fract_x
_atom_site_fract_y
_atom_site_fract_z
_atom_site_occupancy
  Ge          0.69960      0.37570      0.03389  1.0000
  Ge          0.62502      0.32052      0.36759  1.0000
  Ge          0.68608      0.31391      0.70032  1.0000
  Ge          0.29273      0.61158      0.54283  1.0000
  Ge          0.38512      0.67713      0.87719  1.0000
  Ge          0.32346      0.70436      0.21061  1.0000
  Ge          0.37714      0.69656      0.30892  1.0000
  Ge          0.32281      0.62313      0.97544  1.0000
  Si          0.31783      0.68231      0.64020  1.0000
  Ge          0.62303      0.29758      0.79875  1.0000
  Ge          0.67826      0.38056      0.46588  1.0000
  Ge          0.70631      0.32128      0.13215  1.0000
  Si          0.53438      0.42047      0.96420  1.0000
  Si          0.57952      0.11124      0.29753  1.0000
  Si          0.89600      0.47394      0.63153  1.0000
  Si          0.48116      0.57844      0.48149  1.0000
  Si          0.42386      0.89831      0.81344  1.0000
  Si          0.10220      0.51876      0.14800  1.0000
  Si          0.42234      0.53178      0.37875  1.0000
  Si          0.11364      0.57847      0.04532  1.0000
  Ge          0.47330      0.89653      0.70910  1.0000
  Si          0.58325      0.48010      0.86154  1.0000
  Si          0.90077      0.41869      0.52863  1.0000
  Si          0.52029      0.09998      0.19482  1.0000
  Si          0.29643      0.40689      0.85089  1.0000
  Si          0.59345      0.88606      0.18465  1.0000
  Si          0.11551      0.70457      0.51695  1.0000
  Si          0.70550      0.60776      0.35883  1.0000
  Si          0.39892      0.11059      0.69064  1.0000
  Si          0.90615      0.29522      0.02550  1.0000
  Si          0.40790      0.29125      0.49141  1.0000
  Si          0.88810      0.59146      0.15796  1.0000
  Si          0.71284      0.11519      0.82244  1.0000
  Si          0.61025      0.70406      0.98382  1.0000
  Ge          0.10547      0.39583      0.64897  1.0000
  Si          0.29631      0.90313      0.31710  1.0000
  Si          0.25177      0.34062      0.95311  1.0000
  Si          0.65941      0.90814      0.28674  1.0000
  Si          0.10682      0.75364      0.61934  1.0000
  Si          0.76216      0.66191      0.46099  1.0000
  Si          0.34239      0.09998      0.79352  1.0000
  Si          0.90373      0.23751      0.12766  1.0000
  Si          0.34239      0.24867      0.38930  1.0000
  Si          0.91055      0.65818      0.05589  1.0000
  Si          0.76069      0.10178      0.71994  1.0000
  Si          0.66615      0.76168      0.88165  1.0000
  Si          0.09819      0.33181      0.54607  1.0000
  Si          0.23902      0.90134      0.21494  1.0000
  Si          0.98073      0.12038      0.97225  1.0000
  Si          0.87993      0.85768      0.30543  1.0000
  Si          0.14913      0.02506      0.63849  1.0000
  Si          0.03626      0.87937      0.47004  1.0000
  Si          0.12193      0.15156      0.80460  1.0000
  Si          0.84684      0.96305      0.13747  1.0000
  Si          0.12152      0.97838      0.36981  1.0000
  Si          0.85984      0.87870      0.03696  1.0000
  Si          0.03349      0.14658      0.70362  1.0000
  Si          0.88569      0.03526      0.87154  1.0000
  Si          0.15353      0.11453      0.53748  1.0000
  Si          0.96483      0.84486      0.20496  1.0000
  O2          0.94230      0.99964      0.00467  1.0000
  O2          0.00156      0.94068      0.33722  1.0000
  O2          0.06166      0.05533      0.67138  1.0000
  O2          0.08687      0.99627      0.50400  1.0000
  O2          0.00653      0.08188      0.83938  1.0000
  O2          0.91592      0.91361      0.17101  1.0000
  O3          0.34604      0.58414      0.35117  1.0000
  O3          0.42560      0.76242      0.67680  1.0000
  O3          0.24188      0.65453      0.01760  1.0000
  O3          0.65893      0.43571      0.83131  1.0000
  O3          0.56641      0.21969      0.16398  1.0000
  O3          0.77904      0.34371      0.49895  1.0000
  O3          0.58655      0.34425      0.99189  1.0000
  O3          0.76816      0.42939      0.65907  1.0000
  O3          0.65582      0.23912      0.32532  1.0000
  O3          0.43529      0.65159      0.51249  1.0000
  O3          0.22159      0.56440      0.17880  1.0000
  O3          0.35009      0.78232      0.84588  1.0000
  O2          0.13420      0.20705      0.97218  1.0000
  O2          0.79275      0.92402      0.30596  1.0000
  O2          0.10042      0.87383      0.64062  1.0000
  O2          0.88444      0.79570      0.47751  1.0000
  O2          0.20900      0.08660      0.81134  1.0000
  O2          0.91557      0.11532      0.14430  1.0000
  O2          0.20915      0.13184      0.36977  1.0000
  O2          0.92637      0.79164      0.03663  1.0000
  O2          0.88260      0.09639      0.69984  1.0000
  O2          0.80035      0.88310      0.86495  1.0000
  O2          0.08466      0.19715      0.52885  1.0000
  O2          0.11708      0.91352      0.19835  1.0000
  O2          0.93026      0.86057      0.25556  1.0000
  O2          0.13429      0.06351      0.58831  1.0000
  O2          0.93086      0.06882      0.92270  1.0000
  O2          0.06770      0.12927      0.75438  1.0000
  O2          0.86264      0.92977      0.08668  1.0000
  O2          0.06835      0.92924      0.41931  1.0000
  O2          0.91955      0.20553      0.98783  1.0000
  O2          0.79583      0.71123      0.32122  1.0000
  O2          0.29658      0.10340      0.65345  1.0000
  O2          0.10405      0.79576      0.47948  1.0000
  O2          0.20387      0.30353      0.81368  1.0000
  O2          0.69599      0.89624      0.14731  1.0000
  O2          0.20607      0.91614      0.35466  1.0000
  O2          0.71338      0.79403      0.02146  1.0000
  O3          0.10933      0.29311      0.68989  1.0000
  O2          0.80479      0.10433      0.85978  1.0000
  O2          0.30516      0.19882      0.52875  1.0000
  O2          0.89817      0.69383      0.19531  1.0000
  O1          0.30911      0.61632      0.26067  1.0000
  O3          0.38218      0.68883      0.59292  1.0000
  O1          0.31062      0.69093      0.92705  1.0000
  O1          0.69892      0.38910      0.74985  1.0000
  O1          0.61885      0.30702      0.08204  1.0000
  O1          0.69399      0.30839      0.41575  1.0000
  O2          0.37995      0.34029      0.96815  1.0000
  O2          0.65960      0.03674      0.30150  1.0000
  O2          0.97619      0.62892      0.63454  1.0000
  O2          0.63705      0.66315      0.47936  1.0000
  O2          0.34270      0.97327      0.81060  1.0000
  O2          0.02992      0.36271      0.14611  1.0000
  O2          0.34293      0.37740      0.37424  1.0000
  O2          0.03920      0.65854      0.04110  1.0000
  O3          0.63805      0.97109      0.70574  1.0000
  O2          0.66645      0.63611      0.86325  1.0000
  O2          0.97202      0.33379      0.52894  1.0000
  O2          0.36437      0.02761      0.19645  1.0000
  O3          0.77931      0.29793      0.01310  1.0000
  O3          0.70246      0.47794      0.34654  1.0000
  O3          0.52799      0.24029      0.68046  1.0000
  O3          0.24684      0.70708      0.51048  1.0000
  O3          0.29051      0.53458      0.84491  1.0000
  O3          0.46641      0.75238      0.17877  1.0000
  O3          0.29887      0.77607      0.32943  1.0000
  O3          0.48065      0.70154      0.99588  1.0000
  O3          0.24328      0.53765      0.66000  1.0000
  O3          0.71603      0.24688      0.83009  1.0000
  O3          0.53457      0.28373      0.49704  1.0000
  O3          0.75442      0.46442      0.16381  1.0000
  O3          0.78915      0.54305      0.03266  1.0000
  O3          0.45775      0.24193      0.36649  1.0000
  O3          0.75986      0.22113      0.69713  1.0000
  O3          0.22690      0.44646      0.52679  1.0000
  O3          0.55105      0.77470      0.86257  1.0000
  O3          0.22633      0.77324      0.19594  1.0000
  O3          0.54428      0.78649      0.30992  1.0000
  O3          0.24551      0.45583      0.97633  1.0000
  O2          0.22826      0.75029      0.64026  1.0000
  O3          0.45753      0.22724      0.81310  1.0000
  O3          0.77468      0.54651      0.48020  1.0000
  O3          0.77562      0.22461      0.14668  1.0000
  O2          0.23644      0.33680      0.89901  1.0000
  O2          0.66401      0.89676      0.23267  1.0000
  O2          0.11292      0.76812      0.56531  1.0000
  O2          0.77323      0.66976      0.40615  1.0000
  O2          0.33416      0.10573      0.73877  1.0000
  O2          0.90075      0.22711      0.07280  1.0000
  O2          0.33681      0.23240      0.44338  1.0000
  O2          0.89913      0.66250      0.10995  1.0000
  O2          0.77585      0.11238      0.77428  1.0000
  O2          0.67319      0.77189      0.93653  1.0000
  O3          0.10190      0.31762      0.60042  1.0000
  O2          0.22860      0.89822      0.26978  1.0000
  O2          0.58761      0.56040      0.98680  1.0000
  O2          0.43954      0.02435      0.32001  1.0000
  O3          0.97569      0.41649      0.65590  1.0000
  O2          0.44030      0.43654      0.50012  1.0000
  O2          0.56923      0.99745      0.82920  1.0000
  O2          0.00246      0.56116      0.16654  1.0000
  O2          0.56237      0.58622      0.35611  1.0000
  O2          0.02745      0.43857      0.02270  1.0000
  O3          0.42059      0.99113      0.68444  1.0000
  O2          0.44108      0.43684      0.84258  1.0000
  O2          0.99792      0.56109      0.50953  1.0000
  O2          0.56330      0.00070      0.17617  1.0000
  O2          0.57204      0.14544      0.24582  1.0000
  O2          0.86097      0.42731      0.58027  1.0000
  O2          0.57584      0.42789      0.91257  1.0000
  O3          0.42360      0.84777      0.76289  1.0000
  O2          0.14773      0.57115      0.09700  1.0000
  O2          0.42883      0.57181      0.43051  1.0000
  F           0.41902      0.85091      0.24782  1.0000
  F           0.14614      0.55453      0.57903  1.0000
  F           0.43557      0.58131      0.91428  1.0000
  F           0.57229      0.15232      0.75959  1.0000
  F           0.85314      0.41753      0.09468  1.0000
  F           0.58244      0.43131      0.42812  1.0000
