data_cif

_audit_creation_method             'generated by GULP'

_symmetry_space_group_name_H-M     'P 1'
_symmetry_Int_Tables_number        1
_symmetry_cell_setting             triclinic

_cell_length_a                       12.0676
_cell_length_b                       12.0902
_cell_length_c                       29.7243
_cell_angle_alpha                   90.0069
_cell_angle_beta                    89.8467
_cell_angle_gamma                  119.9912

loop_
_atom_site_label
_atom_site_fract_x
_atom_site_fract_y
_atom_site_fract_z
_atom_site_occupancy
  Ge          0.69960      0.37570      0.03389  1.0000
  Ge          0.61539      0.31606      0.36737  1.0000
  Ge          0.67297      0.28585      0.70023  1.0000
  Ge          0.29703      0.61618      0.52279  1.0000
  Si          0.36500      0.67465      0.85520  1.0000
  Ge          0.32381      0.69116      0.19073  1.0000
  Ge          0.38122      0.69787      0.28898  1.0000
  Ge          0.32001      0.61020      0.95265  1.0000
  Ge          0.29258      0.67185      0.62086  1.0000
  Si          0.62940      0.30706      0.79785  1.0000
  Ge          0.67511      0.36969      0.46567  1.0000
  Ge          0.69449      0.31460      0.13208  1.0000
  Si          0.51624      0.41477      0.97128  1.0000
  Si          0.57818      0.09435      0.30468  1.0000
  Si          0.89602      0.47399      0.63874  1.0000
  Si          0.46247      0.57105      0.45340  1.0000
  Ge          0.42352      0.88983      0.78718  1.0000
  Ge          0.11230      0.53136      0.11797  1.0000
  Si          0.41630      0.51120      0.35087  1.0000
  Si          0.09741      0.57608      0.01371  1.0000
  Si          0.47725      0.89483      0.68260  1.0000
  Ge          0.57076      0.46282      0.86666  1.0000
  Si          0.88289      0.41430      0.53612  1.0000
  Si          0.53055      0.10455      0.20202  1.0000
  Si          0.28468      0.38933      0.84808  1.0000
  Si          0.60997      0.89955      0.18273  1.0000
  Si          0.09055      0.69743      0.51558  1.0000
  Si          0.70405      0.58582      0.34088  1.0000
  Si          0.40453      0.11006      0.67417  1.0000
  Si          0.88059      0.28706      0.00690  1.0000
  Si          0.38691      0.28827      0.47358  1.0000
  Si          0.89811      0.60339      0.13999  1.0000
  Si          0.70914      0.10151      0.80594  1.0000
  Si          0.58808      0.70271      0.97947  1.0000
  Si          0.11159      0.40238      0.64769  1.0000
  Si          0.29119      0.87878      0.31440  1.0000
  Si          0.23311      0.33127      0.95065  1.0000
  Si          0.66268      0.89687      0.28480  1.0000
  Si          0.09432      0.75502      0.61771  1.0000
  Si          0.74590      0.65177      0.44294  1.0000
  Si          0.34566      0.09794      0.77712  1.0000
  Si          0.90676      0.24344      0.10886  1.0000
  Si          0.33336      0.23033      0.37149  1.0000
  Si          0.89757      0.65698      0.03720  1.0000
  Si          0.75994      0.09386      0.70336  1.0000
  Si          0.64830      0.74883      0.87653  1.0000
  Si          0.08629      0.33426      0.54580  1.0000
  Si          0.24716      0.89897      0.21227  1.0000
  Si          0.95943      0.11157      0.96023  1.0000
  Si          0.88012      0.83995      0.29402  1.0000
  Si          0.15012      0.02922      0.62708  1.0000
  Si          0.01616      0.87238      0.46214  1.0000
  Si          0.11727      0.14370      0.79535  1.0000
  Si          0.85703      0.97219      0.12809  1.0000
  Si          0.11511      0.95638      0.36163  1.0000
  Si          0.84181      0.87541      0.02736  1.0000
  Si          0.03347      0.14836      0.69439  1.0000
  Si          0.87629      0.02313      0.85912  1.0000
  Si          0.13635      0.11345      0.52671  1.0000
  Si          0.97596      0.85250      0.19318  1.0000
  O2          0.91370      0.99533      0.99454  1.0000
  O2          0.99797      0.90823      0.32770  1.0000
  O2          0.08073      0.07804      0.66068  1.0000
  O2          0.05425      0.99338      0.49420  1.0000
  O2          0.99741      0.05295      0.82752  1.0000
  O2          0.94250      0.93820      0.16061  1.0000
  O3          0.34250      0.55730      0.32038  1.0000
  O3          0.43465      0.77780      0.65080  1.0000
  O3          0.21144      0.64799      0.98025  1.0000
  O3          0.65785      0.41165      0.83576  1.0000
  O3          0.58162      0.23256      0.17421  1.0000
  O3          0.75452      0.33856      0.50846  1.0000
  O3          0.55805      0.34055      0.00349  1.0000
  O3          0.77734      0.42892      0.67012  1.0000
  O3          0.65259      0.21375      0.33537  1.0000
  O3          0.40912      0.64727      0.48037  1.0000
  O1          0.24843      0.58336      0.14812  1.0000
  O3          0.33624      0.75050      0.81733  1.0000
  O2          0.11175      0.19615      0.96681  1.0000
  O2          0.79613      0.90798      0.30169  1.0000
  O2          0.08316      0.87740      0.63444  1.0000
  O2          0.86246      0.78540      0.46224  1.0000
  O2          0.22032      0.09626      0.79800  1.0000
  O2          0.92125      0.12463      0.12724  1.0000
  O2          0.19958      0.10848      0.35483  1.0000
  O2          0.90779      0.78960      0.01986  1.0000
  O2          0.88134      0.07991      0.68730  1.0000
  O2          0.77383      0.87274      0.85597  1.0000
  O2          0.06969      0.20041      0.52683  1.0000
  O2          0.12914      0.91325      0.19262  1.0000
  O2          0.92982      0.85812      0.24314  1.0000
  O2          0.13323      0.06092      0.57623  1.0000
  O2          0.92483      0.05913      0.90975  1.0000
  O2          0.06669      0.13054      0.74504  1.0000
  O2          0.85698      0.92034      0.07863  1.0000
  O2          0.06515      0.92306      0.41237  1.0000
  O2          0.89052      0.19412      0.96963  1.0000
  O2          0.79672      0.68864      0.30351  1.0000
  O2          0.30108      0.09892      0.63720  1.0000
  O2          0.07735      0.78752      0.47803  1.0000
  O2          0.18566      0.29117      0.81083  1.0000
  O2          0.71151      0.91054      0.14475  1.0000
  O2          0.19836      0.88850      0.35180  1.0000
  O2          0.69119      0.79590      0.01636  1.0000
  O2          0.10190      0.29957      0.68489  1.0000
  O2          0.80814      0.10240      0.84331  1.0000
  O2          0.28312      0.19834      0.51121  1.0000
  O2          0.90660      0.70614      0.17716  1.0000
  O1          0.30918      0.61022      0.23915  1.0000
  O1          0.37909      0.68481      0.57056  1.0000
  O3          0.30794      0.68536      0.90192  1.0000
  O3          0.68704      0.37397      0.75099  1.0000
  O1          0.61364      0.30063      0.08377  1.0000
  O1          0.68838      0.30180      0.41753  1.0000
  O2          0.35989      0.33065      0.96776  1.0000
  O2          0.66224      0.02223      0.30331  1.0000
  O2          0.96794      0.62999      0.63641  1.0000
  O2          0.61696      0.65128      0.45779  1.0000
  O3          0.33707      0.96835      0.79323  1.0000
  O3          0.03733      0.36649      0.12229  1.0000
  O2          0.33269      0.35537      0.35263  1.0000
  O2          0.02322      0.65798      0.01792  1.0000
  O2          0.63353      0.96671      0.68607  1.0000
  O3          0.65763      0.62779      0.86095  1.0000
  O2          0.95711      0.33401      0.53166  1.0000
  O2          0.37588      0.02829      0.19776  1.0000
  O3          0.74706      0.28167      0.00139  1.0000
  O3          0.71139      0.45902      0.33548  1.0000
  O3          0.53194      0.24306      0.66766  1.0000
  O3          0.21710      0.69434      0.50260  1.0000
  O2          0.29369      0.52520      0.83851  1.0000
  O3          0.48208      0.77201      0.17060  1.0000
  O3          0.28574      0.74579      0.32061  1.0000
  O3          0.45992      0.70751      0.98589  1.0000
  O3          0.24578      0.52952      0.65300  1.0000
  O2          0.70018      0.22867      0.81502  1.0000
  O3          0.51664      0.29124      0.48594  1.0000
  O3          0.77012      0.47309      0.15155  1.0000
  O3          0.76854      0.54095      0.01913  1.0000
  O3          0.44936      0.21784      0.35283  1.0000
  O3          0.77356      0.22134      0.68361  1.0000
  O3          0.20699      0.44895      0.52190  1.0000
  O2          0.52206      0.74199      0.85500  1.0000
  O3          0.24267      0.77839      0.18910  1.0000
  O3          0.54714      0.76805      0.30351  1.0000
  O3          0.22021      0.44571      0.97025  1.0000
  O3          0.22272      0.76758      0.63631  1.0000
  O2          0.47230      0.21833      0.79793  1.0000
  O3          0.75261      0.53687      0.46617  1.0000
  O3          0.78784      0.24127      0.13348  1.0000
  O2          0.22074      0.32587      0.89575  1.0000
  O2          0.67309      0.89622      0.23006  1.0000
  O2          0.09704      0.76567      0.56287  1.0000
  O2          0.76256      0.65664      0.38891  1.0000
  O2          0.33716      0.10219      0.72292  1.0000
  O2          0.89037      0.22697      0.05479  1.0000
  O2          0.32482      0.22045      0.42633  1.0000
  O2          0.89785      0.66605      0.09196  1.0000
  O2          0.77213      0.10043      0.75825  1.0000
  O2          0.65517      0.76223      0.93072  1.0000
  O2          0.09974      0.33113      0.59977  1.0000
  O2          0.23058      0.88776      0.26635  1.0000
  O2          0.56153      0.55923      0.98813  1.0000
  O2          0.43533      0.99438      0.32285  1.0000
  O2          0.99756      0.43307      0.65670  1.0000
  O2          0.40875      0.43148      0.47634  1.0000
  O3          0.57163      0.97789      0.81226  1.0000
  O3          0.01909      0.58376      0.14457  1.0000
  O2          0.55889      0.55432      0.33211  1.0000
  O2          0.99534      0.43123      0.99834  1.0000
  O2          0.43217      0.99382      0.66536  1.0000
  O3          0.42210      0.40260      0.84198  1.0000
  O2          0.96887      0.55419      0.51332  1.0000
  O2          0.58664      0.02009      0.17949  1.0000
  O2          0.57183      0.13942      0.25362  1.0000
  O2          0.84943      0.42137      0.58789  1.0000
  O3          0.57105      0.41877      0.92095  1.0000
  O3          0.42283      0.84521      0.73295  1.0000
  O3          0.15260      0.57760      0.06344  1.0000
  O2          0.42232      0.56320      0.40171  1.0000
  F           0.43192      0.84481      0.25130  1.0000
  F           0.14477      0.57539      0.58428  1.0000
  F           0.41423      0.55553      0.91911  1.0000
  F           0.57892      0.13764      0.73431  1.0000
  F           0.84926      0.42775      0.07084  1.0000
  F           0.56341      0.41127      0.40422  1.0000
