data_cif

_audit_creation_method             'generated by GULP'

_symmetry_space_group_name_H-M     'P 1'
_symmetry_Int_Tables_number        1
_symmetry_cell_setting             triclinic

_cell_length_a                       12.0939
_cell_length_b                       12.0724
_cell_length_c                       29.6947
_cell_angle_alpha                   89.2041
_cell_angle_beta                    89.5610
_cell_angle_gamma                  119.9470

loop_
_atom_site_label
_atom_site_fract_x
_atom_site_fract_y
_atom_site_fract_z
_atom_site_occupancy
  Ge          0.69960      0.37570      0.03389  1.0000
  Ge          0.60750      0.32245      0.37063  1.0000
  Ge          0.67650      0.26831      0.70272  1.0000
  Ge          0.28479      0.59599      0.53777  1.0000
  Ge          0.38835      0.66366      0.87239  1.0000
  Ge          0.31777      0.69496      0.20099  1.0000
  Si          0.37141      0.69663      0.30437  1.0000
  Si          0.31030      0.62062      0.97080  1.0000
  Si          0.31630      0.66318      0.63555  1.0000
  Si          0.63795      0.30431      0.80024  1.0000
  Si          0.67724      0.35182      0.46839  1.0000
  Si          0.68718      0.30369      0.13699  1.0000
  Si          0.52153      0.41216      0.96870  1.0000
  Si          0.57944      0.11626      0.30372  1.0000
  Si          0.89526      0.45119      0.63754  1.0000
  Si          0.46760      0.56293      0.47318  1.0000
  Si          0.42761      0.88208      0.80599  1.0000
  Si          0.11186      0.51474      0.13758  1.0000
  Ge          0.41983      0.52186      0.36863  1.0000
  Ge          0.08839      0.56183      0.03854  1.0000
  Ge          0.47873      0.88049      0.70122  1.0000
  Ge          0.57899      0.46826      0.86446  1.0000
  Ge          0.89708      0.40528      0.53290  1.0000
  Ge          0.51716      0.08077      0.20443  1.0000
  Si          0.29383      0.39423      0.84672  1.0000
  Si          0.60261      0.89427      0.18182  1.0000
  Si          0.10984      0.69249      0.51392  1.0000
  Si          0.70508      0.59666      0.34854  1.0000
  Si          0.40543      0.09296      0.68072  1.0000
  Si          0.89824      0.29096      0.01371  1.0000
  Si          0.39516      0.27542      0.48029  1.0000
  Ge          0.89790      0.59058      0.14908  1.0000
  Si          0.71380      0.09791      0.81227  1.0000
  Si          0.59509      0.69757      0.97977  1.0000
  Si          0.11008      0.37971      0.64581  1.0000
  Si          0.29254      0.90053      0.31367  1.0000
  Si          0.24456      0.33974      0.95023  1.0000
  Si          0.65336      0.90949      0.28513  1.0000
  Si          0.10268      0.73154      0.61744  1.0000
  Si          0.74681      0.63601      0.45198  1.0000
  Si          0.35635      0.09004      0.78427  1.0000
  Si          0.90535      0.24083      0.11682  1.0000
  Si          0.32730      0.23216      0.37840  1.0000
  Si          0.91153      0.66517      0.04649  1.0000
  Si          0.76737      0.07873      0.71047  1.0000
  Si          0.66869      0.75589      0.87764  1.0000
  Si          0.09573      0.31505      0.54382  1.0000
  Si          0.23765      0.90482      0.21161  1.0000
  Si          0.96929      0.11731      0.96380  1.0000
  Si          0.87253      0.85141      0.29815  1.0000
  Si          0.15407      0.00571      0.63168  1.0000
  Si          0.02125      0.85819      0.46500  1.0000
  Si          0.13337      0.14269      0.79792  1.0000
  Si          0.84582      0.96138      0.13031  1.0000
  Si          0.10623      0.95999      0.36425  1.0000
  Si          0.84171      0.87531      0.02923  1.0000
  Si          0.04144      0.13018      0.69718  1.0000
  Si          0.89251      0.02970      0.86308  1.0000
  Si          0.14591      0.09200      0.53071  1.0000
  Si          0.95715      0.83975      0.19778  1.0000
  O2          0.92418      0.99215      0.99476  1.0000
  O2          0.99372      0.92972      0.32967  1.0000
  O2          0.07379      0.04569      0.66415  1.0000
  O2          0.06238      0.97756      0.49725  1.0000
  O2          0.01052      0.06138      0.82995  1.0000
  O2          0.92942      0.92043      0.16035  1.0000
  O3          0.33652      0.58119      0.33824  1.0000
  O3          0.42424      0.74035      0.67112  1.0000
  O3          0.23274      0.64943      0.00615  1.0000
  O3          0.66730      0.41533      0.83459  1.0000
  O3          0.57141      0.21949      0.16842  1.0000
  O3          0.75737      0.31933      0.50284  1.0000
  O3          0.56470      0.33748      0.00190  1.0000
  O3          0.77927      0.40942      0.67019  1.0000
  O3          0.64982      0.22622      0.33791  1.0000
  O3          0.42706      0.63577      0.50615  1.0000
  O3          0.22649      0.55468      0.17197  1.0000
  O3          0.35263      0.76797      0.83950  1.0000
  O2          0.12010      0.21318      0.97093  1.0000
  O2          0.77720      0.90762      0.30529  1.0000
  O2          0.10069      0.85431      0.63835  1.0000
  O2          0.87065      0.75919      0.47264  1.0000
  O2          0.23167      0.09032      0.80512  1.0000
  O2          0.90103      0.11278      0.13646  1.0000
  O2          0.19169      0.11289      0.36318  1.0000
  O2          0.90521      0.78729      0.02628  1.0000
  O2          0.88919      0.06482      0.69546  1.0000
  O2          0.80454      0.87743      0.86185  1.0000
  O2          0.08214      0.18052      0.52828  1.0000
  O2          0.10849      0.89625      0.19351  1.0000
  O2          0.91889      0.86811      0.24660  1.0000
  O2          0.13576      0.03524      0.58050  1.0000
  O2          0.94511      0.07705      0.91236  1.0000
  O2          0.08863      0.12333      0.74674  1.0000
  O2          0.85374      0.93134      0.07856  1.0000
  O2          0.04740      0.90682      0.41354  1.0000
  O2          0.89063      0.18756      0.97733  1.0000
  O2          0.80171      0.70248      0.31195  1.0000
  O2          0.30244      0.08477      0.64414  1.0000
  O2          0.10192      0.78928      0.47713  1.0000
  O2          0.20053      0.29152      0.81016  1.0000
  O2          0.69895      0.88147      0.14649  1.0000
  O2          0.19228      0.89695      0.35111  1.0000
  O2          0.69185      0.79320      0.01730  1.0000
  O2          0.10904      0.27974      0.68314  1.0000
  O2          0.81193      0.09837      0.84936  1.0000
  O2          0.29591      0.17375      0.51748  1.0000
  O3          0.88746      0.69038      0.18944  1.0000
  O3          0.32433      0.64363      0.25493  1.0000
  O3          0.37486      0.67231      0.58661  1.0000
  O3          0.30984      0.67468      0.92116  1.0000
  O3          0.68937      0.36078      0.75104  1.0000
  O3          0.64267      0.30469      0.08551  1.0000
  O3          0.68394      0.30494      0.41929  1.0000
  O2          0.36679      0.33083      0.96701  1.0000
  O2          0.66107      0.03976      0.30084  1.0000
  O2          0.97226      0.60772      0.63384  1.0000
  O2          0.62380      0.64212      0.46910  1.0000
  O2          0.34911      0.96010      0.80163  1.0000
  O2          0.03984      0.35896      0.13279  1.0000
  O3          0.32403      0.35835      0.36226  1.0000
  O3          0.03782      0.67458      0.02600  1.0000
  O3          0.64325      0.94990      0.69501  1.0000
  O3          0.67424      0.63289      0.86021  1.0000
  O3          0.96800      0.31162      0.52720  1.0000
  O3          0.35428      0.03261      0.19198  1.0000
  O3          0.77225      0.30158      0.00673  1.0000
  O3          0.70279      0.46732      0.33810  1.0000
  O3          0.53550      0.22121      0.67013  1.0000
  O3          0.23859      0.69156      0.50437  1.0000
  O3          0.29530      0.52467      0.83845  1.0000
  O3          0.46807      0.76486      0.17600  1.0000
  O2          0.29466      0.76840      0.32014  1.0000
  O2          0.46174      0.69465      0.98609  1.0000
  O2          0.24238      0.51218      0.65196  1.0000
  O2          0.71375      0.23095      0.81772  1.0000
  O2          0.52743      0.27433      0.48566  1.0000
  O3          0.75442      0.45151      0.15249  1.0000
  O3          0.78203      0.54014      0.03057  1.0000
  O3          0.44161      0.22252      0.35631  1.0000
  O3          0.77823      0.20366      0.68796  1.0000
  O3          0.22175      0.43074      0.52251  1.0000
  O3          0.55510      0.76821      0.85703  1.0000
  O3          0.23659      0.77779      0.19415  1.0000
  O2          0.52532      0.78872      0.30581  1.0000
  O2          0.25096      0.46495      0.97008  1.0000
  O2          0.22403      0.72693      0.63721  1.0000
  O2          0.48206      0.21263      0.80300  1.0000
  O2          0.74193      0.50792      0.47098  1.0000
  O2          0.79214      0.25645      0.13802  1.0000
  O2          0.23278      0.32970      0.89614  1.0000
  O2          0.66343      0.89929      0.23137  1.0000
  O2          0.10888      0.75076      0.56330  1.0000
  O2          0.76425      0.65262      0.39789  1.0000
  O2          0.34499      0.09385      0.73014  1.0000
  O2          0.89694      0.22752      0.06286  1.0000
  O2          0.32563      0.21882      0.43328  1.0000
  O3          0.91526      0.67894      0.10057  1.0000
  O2          0.77583      0.08882      0.76529  1.0000
  O2          0.66761      0.76119      0.93265  1.0000
  O2          0.10267      0.31179      0.59877  1.0000
  O2          0.22908      0.90413      0.26654  1.0000
  O2          0.57313      0.55529      0.98730  1.0000
  O2          0.43266      0.01780      0.32138  1.0000
  O2          0.99349      0.40452      0.65425  1.0000
  O2          0.42127      0.41675      0.48938  1.0000
  O2          0.57237      0.98173      0.82148  1.0000
  O3          0.02018      0.56179      0.16065  1.0000
  O3          0.56747      0.58630      0.34237  1.0000
  O3          0.02562      0.42295      0.00476  1.0000
  O3          0.41816      0.96700      0.67497  1.0000
  O3          0.43306      0.40822      0.83908  1.0000
  O3          0.98449      0.55428      0.50731  1.0000
  O3          0.59887      0.02074      0.17021  1.0000
  O3          0.58022      0.16901      0.25377  1.0000
  O3          0.84788      0.40133      0.58730  1.0000
  O3          0.57673      0.41654      0.91908  1.0000
  O3          0.43156      0.83292      0.75582  1.0000
  O3          0.17046      0.58042      0.08966  1.0000
  O3          0.41640      0.56388      0.42304  1.0000
  F           0.45446      0.92623      0.23827  1.0000
  F           0.13492      0.53932      0.57173  1.0000
  F           0.44381      0.56645      0.90454  1.0000
  F           0.58212      0.11996      0.73800  1.0000
  F           0.93185      0.46977      0.07422  1.0000
  F           0.55223      0.41500      0.40559  1.0000
