data_cif

_audit_creation_method             'generated by GULP'

_symmetry_space_group_name_H-M     'P 1'
_symmetry_Int_Tables_number        1
_symmetry_cell_setting             triclinic

_cell_length_a                       12.0817
_cell_length_b                       12.0579
_cell_length_c                       29.7711
_cell_angle_alpha                   90.2012
_cell_angle_beta                    90.4235
_cell_angle_gamma                  120.0375

loop_
_atom_site_label
_atom_site_fract_x
_atom_site_fract_y
_atom_site_fract_z
_atom_site_occupancy
  Si          0.69960      0.37570      0.03389  1.0000
  Ge          0.61440      0.33047      0.36899  1.0000
  Si          0.65896      0.28285      0.70403  1.0000
  Ge          0.29645      0.62121      0.54445  1.0000
  Ge          0.35931      0.64998      0.88325  1.0000
  Ge          0.32869      0.70673      0.21716  1.0000
  Si          0.37846      0.69565      0.31509  1.0000
  Si          0.29807      0.60880      0.98176  1.0000
  Si          0.28741      0.67585      0.64702  1.0000
  Si          0.61095      0.28881      0.80589  1.0000
  Si          0.68269      0.37703      0.47204  1.0000
  Si          0.68681      0.31364      0.13490  1.0000
  Si          0.52044      0.41087      0.97080  1.0000
  Ge          0.57155      0.11279      0.29940  1.0000
  Ge          0.86972      0.45749      0.63891  1.0000
  Si          0.47735      0.59036      0.48116  1.0000
  Ge          0.40606      0.86563      0.81627  1.0000
  Ge          0.10971      0.53384      0.15156  1.0000
  Ge          0.43250      0.53136      0.38192  1.0000
  Ge          0.08770      0.56499      0.05056  1.0000
  Ge          0.46044      0.89242      0.71548  1.0000
  Ge          0.55974      0.46485      0.86704  1.0000
  Ge          0.90143      0.42632      0.53942  1.0000
  Si          0.50913      0.09390      0.19552  1.0000
  Si          0.26968      0.38282      0.85459  1.0000
  Si          0.58970      0.88471      0.18600  1.0000
  Si          0.09640      0.70264      0.52065  1.0000
  Si          0.70093      0.61699      0.35362  1.0000
  Si          0.37637      0.07956      0.68960  1.0000
  Si          0.90174      0.29487      0.02031  1.0000
  Si          0.40143      0.30235      0.48760  1.0000
  Si          0.88135      0.59328      0.15521  1.0000
  Si          0.69553      0.09233      0.82126  1.0000
  Si          0.58689      0.69488      0.98467  1.0000
  Si          0.08539      0.38738      0.65416  1.0000
  Si          0.28650      0.89461      0.31606  1.0000
  Si          0.23867      0.32995      0.95812  1.0000
  Si          0.65535      0.91056      0.28846  1.0000
  Si          0.07216      0.74117      0.62337  1.0000
  Si          0.75190      0.66313      0.45665  1.0000
  Si          0.32711      0.07205      0.79221  1.0000
  Si          0.90709      0.25094      0.12298  1.0000
  Si          0.32725      0.25003      0.38582  1.0000
  Si          0.90514      0.66108      0.05334  1.0000
  Si          0.74020      0.07694      0.71890  1.0000
  Si          0.64467      0.75244      0.88265  1.0000
  Si          0.08315      0.32912      0.55223  1.0000
  Si          0.22779      0.89075      0.21321  1.0000
  Si          0.96279      0.11107      0.97049  1.0000
  Si          0.87814      0.85783      0.30238  1.0000
  Si          0.13811      0.02286      0.63659  1.0000
  Si          0.03168      0.88020      0.46974  1.0000
  Si          0.10712      0.13261      0.80330  1.0000
  Si          0.83879      0.96875      0.13578  1.0000
  Si          0.11321      0.96772      0.36877  1.0000
  Si          0.83573      0.87345      0.03579  1.0000
  Si          0.02133      0.14166      0.70266  1.0000
  Si          0.87569      0.02512      0.86926  1.0000
  Si          0.15446      0.11851      0.53587  1.0000
  Si          0.95414      0.84567      0.20125  1.0000
  O2          0.91747      0.98677      0.00110  1.0000
  O2          0.99883      0.94141      0.33471  1.0000
  O2          0.05157      0.06206      0.66597  1.0000
  O2          0.07549      0.00660      0.49965  1.0000
  O2          0.98548      0.04704      0.83433  1.0000
  O2          0.92023      0.92791      0.16751  1.0000
  O3          0.34998      0.59834      0.35376  1.0000
  O3          0.39769      0.75020      0.68104  1.0000
  O3          0.23111      0.64373      0.01884  1.0000
  O3          0.64537      0.41377      0.83429  1.0000
  O2          0.55880      0.21580      0.16170  1.0000
  O3          0.76669      0.34274      0.50198  1.0000
  O2          0.57590      0.34024      0.00244  1.0000
  O3          0.74188      0.40848      0.67566  1.0000
  O1          0.65362      0.24572      0.33185  1.0000
  O3          0.43950      0.66152      0.51798  1.0000
  O1          0.21995      0.56118      0.19104  1.0000
  O1          0.32168      0.75366      0.85430  1.0000
  O2          0.11560      0.20279      0.97791  1.0000
  O2          0.78304      0.91428      0.30771  1.0000
  O2          0.07864      0.87070      0.64236  1.0000
  O2          0.88052      0.78449      0.47731  1.0000
  O2          0.20629      0.08260      0.81097  1.0000
  O2          0.89505      0.11943      0.14258  1.0000
  O2          0.20254      0.11991      0.36888  1.0000
  O2          0.89493      0.78086      0.03443  1.0000
  O2          0.87007      0.08732      0.69982  1.0000
  O2          0.77702      0.87414      0.86613  1.0000
  O2          0.09240      0.20817      0.53343  1.0000
  O2          0.10520      0.90013      0.19542  1.0000
  O2          0.92443      0.86899      0.25161  1.0000
  O2          0.13673      0.05783      0.58483  1.0000
  O2          0.93424      0.06732      0.91892  1.0000
  O2          0.06304      0.11955      0.75155  1.0000
  O2          0.85033      0.93440      0.08469  1.0000
  O2          0.05819      0.91745      0.41788  1.0000
  O2          0.88947      0.18734      0.98386  1.0000
  O2          0.80605      0.71025      0.31723  1.0000
  O2          0.28442      0.09767      0.65365  1.0000
  O2          0.11031      0.81119      0.48493  1.0000
  O2          0.17065      0.28012      0.81828  1.0000
  O2          0.69023      0.89285      0.14881  1.0000
  O2          0.18953      0.89695      0.35320  1.0000
  O2          0.68627      0.79133      0.02254  1.0000
  O2          0.09429      0.29273      0.69135  1.0000
  O2          0.80520      0.10485      0.85665  1.0000
  O2          0.30567      0.20154      0.52479  1.0000
  O2          0.87292      0.69325      0.19051  1.0000
  O3          0.33055      0.62748      0.26719  1.0000
  O3          0.34242      0.68679      0.59678  1.0000
  O3          0.28517      0.65733      0.93315  1.0000
  O2          0.65255      0.32903      0.75448  1.0000
  O2          0.64625      0.31845      0.08324  1.0000
  O3          0.67299      0.32506      0.42115  1.0000
  O2          0.36566      0.32465      0.97311  1.0000
  O3          0.66989      0.04670      0.29956  1.0000
  O3          0.93745      0.62457      0.63836  1.0000
  O2          0.63374      0.67164      0.47802  1.0000
  O3          0.31406      0.94465      0.81070  1.0000
  O3          0.03345      0.36312      0.14345  1.0000
  O3          0.31403      0.36778      0.36942  1.0000
  O3          0.03579      0.67761      0.03670  1.0000
  O3          0.62444      0.94654      0.70098  1.0000
  O3          0.65224      0.62929      0.86474  1.0000
  O3          0.95807      0.31748      0.52967  1.0000
  O2          0.35398      0.01851      0.19358  1.0000
  O2          0.77207      0.30533      0.01314  1.0000
  O3          0.69633      0.48272      0.34665  1.0000
  O2          0.51608      0.20671      0.68278  1.0000
  O3          0.22502      0.69552      0.51638  1.0000
  O3          0.26397      0.50959      0.84872  1.0000
  O3          0.46231      0.75297      0.17989  1.0000
  O2          0.29336      0.76685      0.32506  1.0000
  O2          0.45326      0.68717      0.99396  1.0000
  O2          0.21596      0.52234      0.65819  1.0000
  O2          0.69216      0.22520      0.82500  1.0000
  O2          0.53560      0.30486      0.49064  1.0000
  O2          0.74622      0.45673      0.15620  1.0000
  O2          0.78429      0.52970      0.03315  1.0000
  O3          0.44932      0.24987      0.36406  1.0000
  O2          0.73086      0.19956      0.70058  1.0000
  O3          0.21134      0.45685      0.53778  1.0000
  O3          0.52471      0.75668      0.86371  1.0000
  O3          0.21918      0.76310      0.19648  1.0000
  O2          0.53176      0.80364      0.31421  1.0000
  O2          0.24570      0.45388      0.98029  1.0000
  O2          0.18119      0.72112      0.64673  1.0000
  O2          0.45838      0.19466      0.81116  1.0000
  O2          0.74271      0.53159      0.47174  1.0000
  O2          0.78379      0.25978      0.13969  1.0000
  O2          0.22141      0.31915      0.90422  1.0000
  O2          0.65554      0.89046      0.23473  1.0000
  O2          0.08792      0.75942      0.56964  1.0000
  O2          0.76077      0.68117      0.40295  1.0000
  O2          0.31558      0.07945      0.73822  1.0000
  O2          0.90201      0.23272      0.06887  1.0000
  O2          0.32882      0.24174      0.44051  1.0000
  O2          0.89745      0.66488      0.10779  1.0000
  O2          0.75174      0.08008      0.77342  1.0000
  O2          0.65081      0.76107      0.93764  1.0000
  O2          0.07387      0.31596      0.60669  1.0000
  O2          0.22311      0.89617      0.26810  1.0000
  O2          0.57335      0.55493      0.98937  1.0000
  O3          0.42406      0.01880      0.32343  1.0000
  O3          0.96483      0.40346      0.66408  1.0000
  O2          0.42453      0.44332      0.49842  1.0000
  O3          0.56178      0.97796      0.83521  1.0000
  O3          0.99179      0.56872      0.17044  1.0000
  O3          0.56796      0.60949      0.34481  1.0000
  O3          0.02649      0.42649      0.01266  1.0000
  O3          0.37824      0.95194      0.68010  1.0000
  O3          0.40949      0.40138      0.84375  1.0000
  O3          0.97120      0.57142      0.50804  1.0000
  O2          0.56884      0.00750      0.17869  1.0000
  O3          0.55755      0.15328      0.24470  1.0000
  O1          0.80646      0.39735      0.58740  1.0000
  O3          0.56406      0.41023      0.92050  1.0000
  O1          0.40361      0.80203      0.76461  1.0000
  O1          0.17491      0.59812      0.10105  1.0000
  O3          0.41622      0.59366      0.43421  1.0000
  F           0.41696      0.86254      0.24583  1.0000
  F           0.04620      0.51795      0.58028  1.0000
  F           0.42708      0.56020      0.91195  1.0000
  F           0.51613      0.04042      0.75020  1.0000
  F           0.93841      0.47014      0.08315  1.0000
  F           0.52759      0.46842      0.41203  1.0000
