data_cif

_audit_creation_method             'generated by GULP'

_symmetry_space_group_name_H-M     'P 1'
_symmetry_Int_Tables_number        1
_symmetry_cell_setting             triclinic

_cell_length_a                       12.0730
_cell_length_b                       12.0721
_cell_length_c                       29.7908
_cell_angle_alpha                   90.7246
_cell_angle_beta                    88.9541
_cell_angle_gamma                  119.8512

loop_
_atom_site_label
_atom_site_fract_x
_atom_site_fract_y
_atom_site_fract_z
_atom_site_occupancy
  Ge          0.69960      0.37570      0.03389  1.0000
  Ge          0.60321      0.31961      0.36367  1.0000
  Si          0.69362      0.30999      0.69429  1.0000
  Si          0.28702      0.61038      0.52163  1.0000
  Si          0.37951      0.68394      0.85405  1.0000
  Ge          0.31508      0.68902      0.19013  1.0000
  Ge          0.37524      0.70150      0.28810  1.0000
  Ge          0.33414      0.62131      0.95195  1.0000
  Si          0.30896      0.67628      0.62304  1.0000
  Ge          0.62510      0.29077      0.79740  1.0000
  Si          0.67024      0.35767      0.46048  1.0000
  Ge          0.69496      0.31708      0.13195  1.0000
  Si          0.51874      0.41617      0.97168  1.0000
  Si          0.57108      0.09600      0.30302  1.0000
  Ge          0.91485      0.47862      0.62833  1.0000
  Ge          0.45890      0.56355      0.45529  1.0000
  Ge          0.43647      0.89878      0.78554  1.0000
  Si          0.11012      0.52441      0.11960  1.0000
  Si          0.40873      0.51714      0.35113  1.0000
  Ge          0.10356      0.56789      0.01504  1.0000
  Ge          0.48470      0.89266      0.68552  1.0000
  Ge          0.57711      0.46300      0.86729  1.0000
  Ge          0.87479      0.40766      0.53040  1.0000
  Si          0.52712      0.10555      0.20061  1.0000
  Si          0.29303      0.39463      0.84952  1.0000
  Si          0.60286      0.89645      0.18142  1.0000
  Si          0.08615      0.69373      0.51281  1.0000
  Si          0.69720      0.58942      0.34064  1.0000
  Si          0.41196      0.10806      0.67704  1.0000
  Si          0.87702      0.27970      0.00765  1.0000
  Si          0.38524      0.27815      0.47127  1.0000
  Si          0.90206      0.60321      0.13969  1.0000
  Si          0.70963      0.08791      0.81077  1.0000
  Si          0.59763      0.70690      0.98029  1.0000
  Si          0.11028      0.39757      0.64472  1.0000
  Si          0.28486      0.88283      0.31381  1.0000
  Si          0.23686      0.33864      0.95207  1.0000
  Si          0.65580      0.89773      0.28328  1.0000
  Si          0.10021      0.75655      0.61487  1.0000
  Si          0.74463      0.64297      0.44351  1.0000
  Si          0.33784      0.08185      0.77906  1.0000
  Si          0.90336      0.24192      0.10963  1.0000
  Si          0.32433      0.23316      0.36923  1.0000
  Si          0.90231      0.65548      0.03801  1.0000
  Si          0.76382      0.09243      0.70782  1.0000
  Si          0.65920      0.74889      0.87757  1.0000
  Si          0.08117      0.32809      0.54278  1.0000
  Si          0.24451      0.90278      0.21197  1.0000
  Si          0.96497      0.11036      0.96171  1.0000
  Si          0.87458      0.84331      0.29384  1.0000
  Si          0.16760      0.03991      0.62840  1.0000
  Si          0.01837      0.86926      0.46232  1.0000
  Si          0.12259      0.14851      0.79578  1.0000
  Si          0.85511      0.97207      0.12883  1.0000
  Si          0.10647      0.96004      0.36164  1.0000
  Si          0.84928      0.87660      0.02835  1.0000
  Si          0.04622      0.15751      0.69452  1.0000
  Si          0.88513      0.02193      0.86117  1.0000
  Si          0.14332      0.10872      0.52699  1.0000
  Si          0.97499      0.85315      0.19333  1.0000
  O2          0.92713      0.99488      0.99541  1.0000
  O2          0.98760      0.91049      0.32911  1.0000
  O2          0.08234      0.07114      0.66266  1.0000
  O2          0.04963      0.98325      0.49797  1.0000
  O2          0.00263      0.05646      0.82708  1.0000
  O2          0.93616      0.93506      0.16172  1.0000
  O3          0.33619      0.56225      0.32046  1.0000
  O3          0.44061      0.76859      0.64596  1.0000
  O1          0.22824      0.65735      0.98179  1.0000
  O1          0.66155      0.41342      0.83407  1.0000
  O3          0.57944      0.23396      0.17355  1.0000
  O3          0.74648      0.32317      0.49539  1.0000
  O3          0.55949      0.34147      0.00368  1.0000
  O3          0.78301      0.43118      0.66636  1.0000
  O3          0.64398      0.21705      0.33312  1.0000
  O3          0.40470      0.64645      0.48899  1.0000
  O3          0.23423      0.57405      0.14938  1.0000
  O3          0.35124      0.75625      0.81671  1.0000
  O2          0.11510      0.20513      0.96879  1.0000
  O2          0.79027      0.91195      0.29979  1.0000
  O2          0.11832      0.89026      0.63381  1.0000
  O2          0.86725      0.76774      0.46462  1.0000
  O2          0.21382      0.08799      0.79672  1.0000
  O2          0.91938      0.12526      0.12912  1.0000
  O2          0.18811      0.11218      0.35435  1.0000
  O2          0.91213      0.78816      0.02142  1.0000
  O2          0.89657      0.10780      0.68756  1.0000
  O2          0.78640      0.87110      0.85709  1.0000
  O2          0.08787      0.20514      0.52354  1.0000
  O2          0.12843      0.91952      0.19267  1.0000
  O2          0.92823      0.85752      0.24363  1.0000
  O2          0.14556      0.07046      0.57815  1.0000
  O2          0.93817      0.05827      0.91101  1.0000
  O2          0.07462      0.14484      0.74560  1.0000
  O2          0.86245      0.92444      0.07932  1.0000
  O2          0.05783      0.92741      0.41300  1.0000
  O2          0.88288      0.18016      0.97152  1.0000
  O2          0.79001      0.69301      0.30397  1.0000
  O2          0.31782      0.11899      0.64042  1.0000
  O2          0.09334      0.79495      0.47563  1.0000
  O2          0.19537      0.29483      0.81233  1.0000
  O2          0.70749      0.90833      0.14400  1.0000
  O2          0.19094      0.89341      0.35127  1.0000
  O2          0.69954      0.79997      0.01712  1.0000
  O2          0.12894      0.30594      0.67988  1.0000
  O2          0.81360      0.09838      0.84708  1.0000
  O2          0.28827      0.17742      0.50844  1.0000
  O2          0.91443      0.70684      0.17761  1.0000
  O1          0.30382      0.61167      0.23873  1.0000
  O2          0.34040      0.66201      0.57111  1.0000
  O3          0.32628      0.69754      0.90198  1.0000
  O3          0.68401      0.35214      0.74505  1.0000
  O1          0.61453      0.30883      0.08480  1.0000
  O3          0.67871      0.30363      0.41278  1.0000
  O2          0.36244      0.33763      0.96995  1.0000
  O2          0.65563      0.02425      0.30148  1.0000
  O3          0.97354      0.64559      0.63691  1.0000
  O3          0.62294      0.65138      0.46089  1.0000
  O3          0.32255      0.95048      0.79532  1.0000
  O2          0.02907      0.37036      0.12552  1.0000
  O2          0.32366      0.36092      0.35397  1.0000
  O3          0.03055      0.66228      0.02162  1.0000
  O3          0.65167      0.96573      0.68551  1.0000
  O3          0.67083      0.62740      0.86356  1.0000
  O3          0.94970      0.31395      0.52736  1.0000
  O2          0.37284      0.03019      0.19651  1.0000
  O3          0.74226      0.27258      0.00385  1.0000
  O3          0.70163      0.46189      0.33217  1.0000
  O2          0.54766      0.23859      0.67503  1.0000
  O2          0.21227      0.68121      0.50421  1.0000
  O2          0.30202      0.53001      0.84037  1.0000
  O3          0.47358      0.76958      0.16950  1.0000
  O3          0.27802      0.74919      0.31997  1.0000
  O3          0.47100      0.71369      0.98687  1.0000
  O2          0.24052      0.53593      0.64605  1.0000
  O3          0.70560      0.21748      0.81774  1.0000
  O2          0.52120      0.28654      0.47880  1.0000
  O3          0.77857      0.47261      0.15406  1.0000
  O3          0.77597      0.53927      0.01787  1.0000
  O3          0.43826      0.22125      0.34761  1.0000
  O2          0.74837      0.21119      0.69248  1.0000
  O2          0.19665      0.45644      0.52028  1.0000
  O2          0.53443      0.73783      0.85483  1.0000
  O3          0.23791      0.77945      0.18974  1.0000
  O3          0.54057      0.77032      0.30285  1.0000
  O3          0.22515      0.45552      0.97061  1.0000
  O2          0.22331      0.74527      0.62966  1.0000
  O3          0.46050      0.20136      0.80105  1.0000
  O2          0.73659      0.51469      0.46288  1.0000
  O3          0.77903      0.23364      0.13207  1.0000
  O2          0.22812      0.33116      0.89715  1.0000
  O2          0.66394      0.89183      0.22864  1.0000
  O2          0.09107      0.76148      0.56054  1.0000
  O2          0.75715      0.65381      0.38949  1.0000
  O2          0.33900      0.09313      0.72448  1.0000
  O2          0.89684      0.22769      0.05564  1.0000
  O2          0.32033      0.21801      0.42388  1.0000
  O2          0.88841      0.66007      0.09289  1.0000
  O2          0.77044      0.08321      0.76157  1.0000
  O2          0.66427      0.76630      0.93151  1.0000
  O2          0.09547      0.32630      0.59647  1.0000
  O2          0.22707      0.89391      0.26605  1.0000
  O2          0.57142      0.56299      0.98794  1.0000
  O2          0.42903      0.99698      0.32247  1.0000
  O3          0.98873      0.40706      0.65928  1.0000
  O3          0.39784      0.41502      0.47956  1.0000
  O3          0.57563      0.96409      0.81981  1.0000
  O2          0.02716      0.58693      0.13959  1.0000
  O2          0.55352      0.56342      0.33370  1.0000
  O3          0.98901      0.42001      0.99484  1.0000
  O3          0.42983      0.98979      0.66350  1.0000
  O3          0.42971      0.40574      0.84251  1.0000
  O3          0.96238      0.55905      0.50553  1.0000
  O2          0.58163      0.01824      0.17852  1.0000
  O2          0.56527      0.13965      0.25225  1.0000
  O1          0.81321      0.40381      0.58222  1.0000
  O3          0.56981      0.41271      0.92103  1.0000
  O1          0.41923      0.81680      0.73428  1.0000
  O3          0.15327      0.55793      0.06880  1.0000
  O3          0.41270      0.56845      0.40233  1.0000
  F           0.42660      0.84690      0.25119  1.0000
  F           0.05090      0.52473      0.58467  1.0000
  F           0.42278      0.55785      0.92058  1.0000
  F           0.53300      0.05287      0.74956  1.0000
  F           0.84975      0.42491      0.07062  1.0000
  F           0.54904      0.41213      0.39995  1.0000
