data_cif

_audit_creation_method             'generated by GULP'

_symmetry_space_group_name_H-M     'P 1'
_symmetry_Int_Tables_number        1
_symmetry_cell_setting             triclinic

_cell_length_a                       12.0916
_cell_length_b                       12.0931
_cell_length_c                       29.7376
_cell_angle_alpha                   89.9359
_cell_angle_beta                    90.0547
_cell_angle_gamma                  120.0442

loop_
_atom_site_label
_atom_site_fract_x
_atom_site_fract_y
_atom_site_fract_z
_atom_site_occupancy
  Ge          0.69960      0.37570      0.03389  1.0000
  Ge          0.59707      0.31162      0.36716  1.0000
  Ge          0.66386      0.27556      0.70050  1.0000
  Ge          0.27668      0.60151      0.54701  1.0000
  Ge          0.37153      0.65479      0.87881  1.0000
  Ge          0.32170      0.69698      0.21603  1.0000
  Si          0.36711      0.68039      0.31495  1.0000
  Si          0.30256      0.61107      0.97752  1.0000
  Si          0.30229      0.67617      0.64521  1.0000
  Si          0.61604      0.28852      0.80361  1.0000
  Si          0.66414      0.35791      0.46984  1.0000
  Si          0.68242      0.30943      0.13645  1.0000
  Si          0.51639      0.40611      0.96945  1.0000
  Si          0.56729      0.09869      0.30218  1.0000
  Si          0.87713      0.45705      0.63683  1.0000
  Si          0.45810      0.57001      0.48251  1.0000
  Si          0.40545      0.86828      0.81329  1.0000
  Ge          0.10529      0.52445      0.14916  1.0000
  Ge          0.41925      0.51465      0.38233  1.0000
  Ge          0.08771      0.56009      0.04693  1.0000
  Ge          0.46436      0.89405      0.71325  1.0000
  Ge          0.56368      0.46208      0.86566  1.0000
  Ge          0.88841      0.40734      0.53287  1.0000
  Ge          0.50795      0.08212      0.19840  1.0000
  Si          0.27640      0.38594      0.85088  1.0000
  Si          0.58716      0.87224      0.18597  1.0000
  Si          0.10096      0.69499      0.51860  1.0000
  Si          0.68688      0.59846      0.35281  1.0000
  Si          0.37739      0.07693      0.68594  1.0000
  Si          0.89954      0.28929      0.01965  1.0000
  Si          0.38516      0.28229      0.48644  1.0000
  Si          0.88206      0.59044      0.15309  1.0000
  Si          0.69303      0.08542      0.81838  1.0000
  Si          0.58961      0.69038      0.98355  1.0000
  Ge          0.09299      0.38592      0.65142  1.0000
  Si          0.28330      0.88475      0.31695  1.0000
  Si          0.23705      0.33132      0.95409  1.0000
  Si          0.64465      0.89557      0.28925  1.0000
  Si          0.08404      0.73543      0.62134  1.0000
  Si          0.73463      0.64233      0.45629  1.0000
  Si          0.33232      0.07376      0.78953  1.0000
  Si          0.89916      0.24195      0.12297  1.0000
  Si          0.31161      0.23393      0.38482  1.0000
  Si          0.90928      0.66237      0.05112  1.0000
  Si          0.74481      0.06905      0.71652  1.0000
  Si          0.65324      0.74842      0.88150  1.0000
  Si          0.08613      0.31820      0.54854  1.0000
  Si          0.22122      0.88103      0.21460  1.0000
  Si          0.96289      0.10972      0.96877  1.0000
  Si          0.86591      0.84250      0.30192  1.0000
  Si          0.13373      0.00906      0.63494  1.0000
  Si          0.01490      0.85900      0.46816  1.0000
  Si          0.11326      0.13253      0.80217  1.0000
  Si          0.83639      0.96085      0.13502  1.0000
  Si          0.10254      0.95299      0.36785  1.0000
  Si          0.83811      0.87196      0.03445  1.0000
  Si          0.02549      0.13327      0.70188  1.0000
  Si          0.87628      0.02194      0.86788  1.0000
  Si          0.13744      0.09677      0.53381  1.0000
  Si          0.94794      0.83738      0.20074  1.0000
  O2          0.91927      0.98571      0.99953  1.0000
  O2          0.99074      0.92197      0.33232  1.0000
  O2          0.05137      0.04934      0.66580  1.0000
  O2          0.05832      0.98325      0.49868  1.0000
  O2          0.99148      0.05341      0.83406  1.0000
  O2          0.92258      0.92370      0.16576  1.0000
  O3          0.33673      0.58048      0.35274  1.0000
  O3          0.40738      0.75205      0.68084  1.0000
  O3          0.23079      0.64268      0.01394  1.0000
  O3          0.64974      0.40884      0.83404  1.0000
  O3          0.56025      0.21986      0.16588  1.0000
  O3          0.75047      0.32347      0.50024  1.0000
  O3          0.56468      0.33303      0.00103  1.0000
  O3          0.75264      0.41012      0.66692  1.0000
  O3          0.63942      0.22089      0.33331  1.0000
  O3          0.42264      0.64040      0.51865  1.0000
  O1          0.21752      0.55423      0.18762  1.0000
  O3          0.33382      0.76048      0.84882  1.0000
  O2          0.11525      0.20382      0.97460  1.0000
  O2          0.77329      0.90191      0.30894  1.0000
  O2          0.07873      0.85754      0.64124  1.0000
  O2          0.86413      0.76305      0.47624  1.0000
  O2          0.21122      0.08011      0.81032  1.0000
  O2          0.88647      0.11006      0.14239  1.0000
  O2          0.18555      0.10540      0.36826  1.0000
  O2          0.90569      0.78736      0.03387  1.0000
  O2          0.87390      0.07565      0.69902  1.0000
  O2          0.78736      0.86991      0.86541  1.0000
  O2          0.07566      0.18649      0.53000  1.0000
  O2          0.09883      0.89096      0.19787  1.0000
  O2          0.90717      0.85469      0.25028  1.0000
  O2          0.12172      0.03883      0.58331  1.0000
  O2          0.93154      0.06739      0.91739  1.0000
  O2          0.06699      0.11053      0.75092  1.0000
  O2          0.84785      0.93178      0.08326  1.0000
  O2          0.04116      0.89877      0.41625  1.0000
  O2          0.88877      0.18302      0.98349  1.0000
  O2          0.79272      0.69472      0.31665  1.0000
  O2          0.28121      0.08747      0.65000  1.0000
  O2          0.09563      0.79145      0.48179  1.0000
  O2          0.18062      0.28203      0.81434  1.0000
  O2          0.68934      0.87667      0.14973  1.0000
  O2          0.18965      0.89181      0.35455  1.0000
  O2          0.68902      0.78571      0.02132  1.0000
  O3          0.09654      0.28167      0.69167  1.0000
  O2          0.79501      0.09085      0.85524  1.0000
  O2          0.28928      0.17894      0.52316  1.0000
  O2          0.86981      0.68671      0.18869  1.0000
  O3          0.31557      0.61719      0.26660  1.0000
  O3          0.35878      0.68526      0.59555  1.0000
  O3          0.29632      0.66314      0.92845  1.0000
  O3          0.66366      0.33512      0.75326  1.0000
  O3          0.63807      0.30818      0.08554  1.0000
  O3          0.66077      0.31119      0.41921  1.0000
  O2          0.36159      0.32331      0.96899  1.0000
  O2          0.65208      0.02864      0.30282  1.0000
  O2          0.94733      0.61176      0.63314  1.0000
  O2          0.61595      0.65054      0.47647  1.0000
  O2          0.32514      0.94602      0.80835  1.0000
  O3          0.02687      0.35477      0.14213  1.0000
  O3          0.30079      0.35249      0.36853  1.0000
  O3          0.03755      0.67355      0.03343  1.0000
  O3          0.62719      0.93992      0.69986  1.0000
  O3          0.65869      0.62608      0.86240  1.0000
  O3          0.96190      0.31728      0.52755  1.0000
  O3          0.34352      0.00968      0.19547  1.0000
  O3          0.77354      0.29979      0.00998  1.0000
  O3          0.67907      0.46280      0.34395  1.0000
  O3          0.51240      0.20592      0.67755  1.0000
  O3          0.22764      0.68952      0.51154  1.0000
  O3          0.27599      0.51531      0.84420  1.0000
  O3          0.45936      0.74083      0.18053  1.0000
  O2          0.28941      0.75767      0.32681  1.0000
  O2          0.45643      0.68617      0.99125  1.0000
  O3          0.23364      0.52416      0.65911  1.0000
  O2          0.69209      0.21864      0.82229  1.0000
  O2          0.51856      0.28135      0.48882  1.0000
  O2          0.74701      0.45629      0.15382  1.0000
  O3          0.78367      0.53955      0.03074  1.0000
  O3          0.43310      0.23128      0.36298  1.0000
  O3          0.74566      0.19350      0.69547  1.0000
  O3          0.21677      0.43600      0.53216  1.0000
  O3          0.53724      0.75917      0.86253  1.0000
  O3          0.21403      0.75486      0.19665  1.0000
  O2          0.52176      0.78106      0.31248  1.0000
  O2          0.24526      0.45580      0.97575  1.0000
  O2          0.19482      0.72196      0.64536  1.0000
  O2          0.46205      0.19760      0.80670  1.0000
  O2          0.72838      0.51202      0.47284  1.0000
  O2          0.77800      0.25253      0.14114  1.0000
  O2          0.22009      0.32143      0.90014  1.0000
  O2          0.65205      0.88484      0.23542  1.0000
  O2          0.10008      0.75553      0.56758  1.0000
  O2          0.74754      0.65686      0.40233  1.0000
  O2          0.31841      0.07644      0.73561  1.0000
  O2          0.89338      0.22626      0.06882  1.0000
  O2          0.31267      0.22374      0.43947  1.0000
  O2          0.90222      0.66410      0.10580  1.0000
  O2          0.75459      0.07771      0.77129  1.0000
  O2          0.65805      0.75387      0.93649  1.0000
  O3          0.07661      0.30150      0.60272  1.0000
  O2          0.21643      0.88216      0.26967  1.0000
  O2          0.56984      0.54877      0.98946  1.0000
  O2          0.42404      0.00852      0.32155  1.0000
  O3          0.96639      0.41094      0.66068  1.0000
  O2          0.41372      0.42296      0.49805  1.0000
  O2          0.55287      0.97015      0.82881  1.0000
  O3          0.99139      0.56400      0.16814  1.0000
  O3          0.55560      0.59419      0.34512  1.0000
  O3          0.02773      0.41971      0.01195  1.0000
  O3          0.38224      0.95076      0.67717  1.0000
  O3          0.41530      0.40033      0.84143  1.0000
  O3          0.97346      0.55835      0.51051  1.0000
  O3          0.57026      0.99480      0.17529  1.0000
  O3          0.56214      0.14158      0.25163  1.0000
  O3          0.83457      0.39836      0.58709  1.0000
  O3          0.56700      0.41003      0.91942  1.0000
  O3          0.40436      0.81223      0.76434  1.0000
  O1          0.16905      0.58688      0.09763  1.0000
  O3          0.39987      0.57168      0.43425  1.0000
  F           0.41359      0.85495      0.24383  1.0000
  F           0.11809      0.53647      0.57857  1.0000
  F           0.43160      0.55803      0.90863  1.0000
  F           0.52928      0.05288      0.74305  1.0000
  F           0.92981      0.46540      0.07915  1.0000
  F           0.51347      0.44719      0.41082  1.0000
