data_cif

_audit_creation_method             'generated by GULP'

_symmetry_space_group_name_H-M     'P 1'
_symmetry_Int_Tables_number        1
_symmetry_cell_setting             triclinic

_cell_length_a                       12.0893
_cell_length_b                       12.1073
_cell_length_c                       29.7350
_cell_angle_alpha                   89.7779
_cell_angle_beta                    90.3199
_cell_angle_gamma                  120.0160

loop_
_atom_site_label
_atom_site_fract_x
_atom_site_fract_y
_atom_site_fract_z
_atom_site_occupancy
  Ge          0.69960      0.37570      0.03389  1.0000
  Ge          0.58850      0.29660      0.36645  1.0000
  Ge          0.66549      0.26223      0.70247  1.0000
  Ge          0.27208      0.57825      0.53353  1.0000
  Ge          0.37883      0.65598      0.86783  1.0000
  Ge          0.30467      0.69414      0.20142  1.0000
  Ge          0.34794      0.66117      0.29924  1.0000
  Si          0.31084      0.62436      0.96563  1.0000
  Ge          0.31213      0.65697      0.63102  1.0000
  Si          0.63668      0.30429      0.79941  1.0000
  Ge          0.66648      0.33605      0.46417  1.0000
  Ge          0.66966      0.30114      0.13238  1.0000
  Si          0.52540      0.41904      0.96791  1.0000
  Si          0.54804      0.08038      0.30055  1.0000
  Ge          0.88725      0.42791      0.63643  1.0000
  Si          0.44638      0.53584      0.46767  1.0000
  Ge          0.43745      0.88015      0.80235  1.0000
  Si          0.08915      0.51817      0.13513  1.0000
  Si          0.38772      0.48556      0.36512  1.0000
  Ge          0.09164      0.57138      0.03104  1.0000
  Si          0.48471      0.87468      0.69734  1.0000
  Ge          0.57696      0.46839      0.86345  1.0000
  Si          0.87959      0.37417      0.53181  1.0000
  Si          0.49503      0.08506      0.19803  1.0000
  Si          0.28778      0.38635      0.84482  1.0000
  Si          0.57627      0.88157      0.17940  1.0000
  Si          0.08309      0.66189      0.51317  1.0000
  Si          0.67296      0.56881      0.34557  1.0000
  Si          0.39695      0.07574      0.68007  1.0000
  Si          0.88068      0.28404      0.01154  1.0000
  Si          0.37981      0.25165      0.47831  1.0000
  Si          0.87207      0.58744      0.14455  1.0000
  Si          0.72447      0.10624      0.81056  1.0000
  Si          0.59507      0.70473      0.97568  1.0000
  Si          0.11568      0.36972      0.64586  1.0000
  Si          0.26350      0.86314      0.31185  1.0000
  Si          0.24447      0.34273      0.94848  1.0000
  Si          0.63070      0.88229      0.28199  1.0000
  Si          0.08667      0.71465      0.61543  1.0000
  Si          0.72744      0.61922      0.44812  1.0000
  Si          0.35452      0.08386      0.78308  1.0000
  Si          0.88853      0.23716      0.11459  1.0000
  Si          0.30740      0.20327      0.37672  1.0000
  Si          0.89026      0.65769      0.04244  1.0000
  Si          0.76832      0.08226      0.70824  1.0000
  Si          0.66287      0.75719      0.87347  1.0000
  Si          0.08523      0.29742      0.54385  1.0000
  Si          0.21259      0.88314      0.21016  1.0000
  Si          0.97026      0.11948      0.96380  1.0000
  Si          0.84669      0.82371      0.29691  1.0000
  Si          0.14188      0.98871      0.63045  1.0000
  Si          0.00133      0.83551      0.46397  1.0000
  Si          0.12810      0.13205      0.79710  1.0000
  Si          0.83024      0.96312      0.13010  1.0000
  Si          0.08564      0.93237      0.36336  1.0000
  Si          0.84039      0.88105      0.02897  1.0000
  Si          0.03734      0.11982      0.69599  1.0000
  Si          0.89442      0.02945      0.86237  1.0000
  Si          0.13198      0.07421      0.52975  1.0000
  Si          0.94171      0.83482      0.19621  1.0000
  O2          0.92974      0.00278      0.99820  1.0000
  O2          0.96445      0.89236      0.33122  1.0000
  O2          0.06714      0.03100      0.66440  1.0000
  O2          0.04894      0.95326      0.49797  1.0000
  O2          0.01343      0.05268      0.83185  1.0000
  O2          0.90182      0.91573      0.16392  1.0000
  O3          0.31166      0.53907      0.33748  1.0000
  O3          0.43677      0.74933      0.66767  1.0000
  O3          0.23221      0.65609      0.00087  1.0000
  O3          0.66526      0.41524      0.83424  1.0000
  O3          0.54719      0.21376      0.17010  1.0000
  O3          0.75415      0.29986      0.50160  1.0000
  O3          0.56361      0.34212      0.00019  1.0000
  O1          0.76261      0.39520      0.66890  1.0000
  O3          0.62384      0.20093      0.33020  1.0000
  O3          0.40335      0.61254      0.49739  1.0000
  O3          0.20464      0.55857      0.16746  1.0000
  O1          0.34416      0.75488      0.83459  1.0000
  O2          0.12149      0.21789      0.96973  1.0000
  O2          0.76241      0.89247      0.30077  1.0000
  O2          0.07987      0.83727      0.63455  1.0000
  O2          0.84818      0.75023      0.46744  1.0000
  O2          0.23072      0.08580      0.80337  1.0000
  O2          0.89821      0.11610      0.13396  1.0000
  O2          0.17047      0.08540      0.36034  1.0000
  O2          0.90306      0.79184      0.02624  1.0000
  O2          0.88595      0.06457      0.69149  1.0000
  O2          0.79614      0.87943      0.85781  1.0000
  O2          0.06633      0.16138      0.52694  1.0000
  O2          0.09485      0.90215      0.19339  1.0000
  O2          0.89883      0.83849      0.24664  1.0000
  O2          0.12713      0.02689      0.58024  1.0000
  O2          0.94039      0.06586      0.91354  1.0000
  O2          0.07335      0.10618      0.74686  1.0000
  O2          0.84182      0.92468      0.07973  1.0000
  O2          0.03949      0.88858      0.41379  1.0000
  O2          0.89166      0.19097      0.97475  1.0000
  O2          0.75962      0.67431      0.30812  1.0000
  O2          0.29121      0.05755      0.64288  1.0000
  O2          0.06396      0.74884      0.47569  1.0000
  O2          0.19367      0.28155      0.80845  1.0000
  O2          0.68113      0.89917      0.14208  1.0000
  O2          0.16917      0.86832      0.34933  1.0000
  O2          0.69298      0.80396      0.01287  1.0000
  O2          0.11587      0.26839      0.68229  1.0000
  O2          0.82944      0.11190      0.84675  1.0000
  O2          0.28003      0.15553      0.51564  1.0000
  O2          0.87735      0.68719      0.18201  1.0000
  O1          0.29079      0.59569      0.24805  1.0000
  O1          0.37341      0.66646      0.57897  1.0000
  O3          0.30240      0.67271      0.91681  1.0000
  O3          0.68137      0.36023      0.75035  1.0000
  O1          0.60503      0.29315      0.08095  1.0000
  O1          0.67263      0.27942      0.41268  1.0000
  O2          0.36907      0.33953      0.96521  1.0000
  O2          0.63254      0.00926      0.29857  1.0000
  O3          0.95836      0.59396      0.63021  1.0000
  O2          0.60212      0.61930      0.46552  1.0000
  O3          0.34723      0.95733      0.80005  1.0000
  O2          0.01798      0.36304      0.12941  1.0000
  O2          0.30690      0.33150      0.36051  1.0000
  O3          0.01774      0.66174      0.02496  1.0000
  O2          0.63953      0.95300      0.69276  1.0000
  O3          0.66825      0.63302      0.85758  1.0000
  O2          0.95870      0.29917      0.52631  1.0000
  O2          0.34069      0.01122      0.19361  1.0000
  O3          0.75297      0.28654      0.00137  1.0000
  O3          0.67464      0.44175      0.33451  1.0000
  O3          0.52304      0.20495      0.66877  1.0000
  O3          0.20917      0.65923      0.50072  1.0000
  O3          0.28558      0.51379      0.83510  1.0000
  O3          0.44834      0.75261      0.16876  1.0000
  O3          0.26030      0.73124      0.31915  1.0000
  O2          0.46076      0.70126      0.98225  1.0000
  O3          0.24978      0.49854      0.65035  1.0000
  O2          0.71998      0.23719      0.81580  1.0000
  O3          0.50932      0.24923      0.48506  1.0000
  O3          0.73898      0.45930      0.15140  1.0000
  O3          0.76523      0.54274      0.02141  1.0000
  O3          0.42025      0.19340      0.35439  1.0000
  O3          0.77595      0.20501      0.68648  1.0000
  O3          0.20998      0.41063      0.52258  1.0000
  O3          0.54603      0.76345      0.85186  1.0000
  O3          0.20175      0.75928      0.18849  1.0000
  O3          0.51385      0.75772      0.30299  1.0000
  O2          0.24689      0.46854      0.96750  1.0000
  O3          0.20986      0.71827      0.63719  1.0000
  O2          0.48166      0.20729      0.80238  1.0000
  O3          0.73668      0.50182      0.46788  1.0000
  O3          0.76680      0.23307      0.13661  1.0000
  O2          0.22848      0.32831      0.89452  1.0000
  O2          0.63804      0.87681      0.22766  1.0000
  O2          0.09765      0.73253      0.56102  1.0000
  O2          0.73981      0.62996      0.39376  1.0000
  O2          0.34073      0.08516      0.72878  1.0000
  O2          0.87776      0.22075      0.06046  1.0000
  O2          0.30715      0.19105      0.43124  1.0000
  O2          0.88476      0.65893      0.09730  1.0000
  O2          0.78163      0.09434      0.76297  1.0000
  O2          0.66243      0.76629      0.92842  1.0000
  O2          0.09239      0.29484      0.59853  1.0000
  O2          0.20149      0.87348      0.26474  1.0000
  O2          0.57288      0.56439      0.98414  1.0000
  O2          0.40769      0.97764      0.31951  1.0000
  O3          0.00502      0.40002      0.65766  1.0000
  O2          0.40844      0.39504      0.48641  1.0000
  O3          0.58839      0.98928      0.82251  1.0000
  O2          0.98400      0.55427      0.15267  1.0000
  O2          0.52800      0.54469      0.34223  1.0000
  O3          0.00545      0.42335      0.00632  1.0000
  O2          0.41935      0.95387      0.67714  1.0000
  O3          0.42828      0.40379      0.83835  1.0000
  O2          0.95898      0.51902      0.51225  1.0000
  O2          0.55341      0.00295      0.17561  1.0000
  O2          0.53687      0.12219      0.24953  1.0000
  O3          0.83730      0.36490      0.58287  1.0000
  O3          0.57797      0.42281      0.91792  1.0000
  O3          0.44634      0.83178      0.74830  1.0000
  O3          0.13861      0.57673      0.08560  1.0000
  O2          0.39289      0.52569      0.41674  1.0000
  F           0.39362      0.83281      0.24045  1.0000
  F           0.13523      0.52794      0.57406  1.0000
  F           0.43848      0.56864      0.90189  1.0000
  F           0.58448      0.12139      0.73853  1.0000
  F           0.84447      0.42691      0.07161  1.0000
  F           0.53964      0.38421      0.40632  1.0000
