data_cif

_audit_creation_method             'generated by GULP'

_symmetry_space_group_name_H-M     'P 1'
_symmetry_Int_Tables_number        1
_symmetry_cell_setting             triclinic

_cell_length_a                       12.1037
_cell_length_b                       12.0906
_cell_length_c                       29.7598
_cell_angle_alpha                   89.8524
_cell_angle_beta                    90.8324
_cell_angle_gamma                  119.9986

loop_
_atom_site_label
_atom_site_fract_x
_atom_site_fract_y
_atom_site_fract_z
_atom_site_occupancy
  Ge          0.69960      0.37570      0.03389  1.0000
  Ge          0.63500      0.32620      0.36864  1.0000
  Ge          0.68595      0.32878      0.69921  1.0000
  Ge          0.31462      0.64555      0.53080  1.0000
  Si          0.36495      0.68484      0.86330  1.0000
  Si          0.30952      0.67671      0.19802  1.0000
  Ge          0.39155      0.72262      0.29518  1.0000
  Ge          0.33295      0.61842      0.96057  1.0000
  Ge          0.28910      0.69066      0.62882  1.0000
  Ge          0.61790      0.29483      0.79780  1.0000
  Ge          0.67629      0.40716      0.46590  1.0000
  Si          0.70082      0.31870      0.13709  1.0000
  Si          0.51464      0.41131      0.97018  1.0000
  Si          0.59161      0.10815      0.30342  1.0000
  Si          0.90002      0.50334      0.63432  1.0000
  Si          0.48574      0.60691      0.46371  1.0000
  Ge          0.41715      0.90503      0.79842  1.0000
  Ge          0.09149      0.51176      0.12871  1.0000
  Si          0.43364      0.54591      0.36112  1.0000
  Ge          0.12073      0.57072      0.02822  1.0000
  Si          0.46607      0.90894      0.69439  1.0000
  Ge          0.56339      0.45966      0.86551  1.0000
  Si          0.89541      0.44736      0.53191  1.0000
  Ge          0.53044      0.09662      0.19934  1.0000
  Si          0.27625      0.39792      0.85506  1.0000
  Si          0.59679      0.87831      0.18652  1.0000
  Si          0.11208      0.73111      0.51966  1.0000
  Si          0.71792      0.61108      0.35278  1.0000
  Si          0.39877      0.12800      0.68664  1.0000
  Si          0.89247      0.28272      0.01888  1.0000
  Si          0.40388      0.32258      0.48475  1.0000
  Si          0.90633      0.59942      0.15281  1.0000
  Si          0.70677      0.11091      0.81885  1.0000
  Si          0.60077      0.70049      0.98479  1.0000
  Si          0.10320      0.42010      0.65233  1.0000
  Si          0.30499      0.90491      0.31929  1.0000
  Si          0.23189      0.33482      0.95748  1.0000
  Si          0.67126      0.90587      0.28859  1.0000
  Si          0.10126      0.78507      0.62132  1.0000
  Si          0.76838      0.68749      0.45401  1.0000
  Si          0.33324      0.10990      0.78892  1.0000
  Si          0.90316      0.23355      0.12151  1.0000
  Si          0.35199      0.26577      0.38228  1.0000
  Si          0.92340      0.65922      0.05036  1.0000
  Si          0.74839      0.10733      0.71568  1.0000
  Si          0.64637      0.74747      0.88196  1.0000
  Si          0.09387      0.36380      0.54969  1.0000
  Si          0.24768      0.89760      0.21628  1.0000
  Si          0.96255      0.10543      0.96934  1.0000
  Si          0.89452      0.85852      0.30213  1.0000
  Si          0.14891      0.05602      0.63491  1.0000
  Si          0.04025      0.90884      0.46800  1.0000
  Si          0.10378      0.15241      0.80225  1.0000
  Si          0.84141      0.95287      0.13631  1.0000
  Si          0.13566      0.99031      0.36771  1.0000
  Si          0.85433      0.87054      0.03578  1.0000
  Si          0.02136      0.16504      0.70084  1.0000
  Si          0.87171      0.02206      0.86796  1.0000
  Si          0.15182      0.14833      0.53414  1.0000
  Si          0.97088      0.84370      0.20154  1.0000
  O2          0.93000      0.98871      0.00241  1.0000
  O2          0.01565      0.94162      0.33417  1.0000
  O2          0.06771      0.09449      0.66680  1.0000
  O2          0.08055      0.02954      0.50030  1.0000
  O2          0.98641      0.05851      0.83355  1.0000
  O2          0.93218      0.92540      0.16888  1.0000
  O3          0.35731      0.58781      0.33012  1.0000
  O3          0.42681      0.79402      0.66195  1.0000
  O1          0.23453      0.65667      0.99093  1.0000
  O1          0.65339      0.42293      0.83438  1.0000
  O3          0.57931      0.23214      0.16705  1.0000
  O3          0.77201      0.37200      0.50297  1.0000
  O3          0.56473      0.33791      0.00216  1.0000
  O3          0.77293      0.45256      0.66234  1.0000
  O3          0.66921      0.23449      0.33278  1.0000
  O3          0.43181      0.68190      0.49123  1.0000
  O3          0.23019      0.56657      0.16411  1.0000
  O3          0.33312      0.76272      0.82715  1.0000
  O2          0.11429      0.19965      0.97426  1.0000
  O2          0.80853      0.92516      0.30490  1.0000
  O2          0.08404      0.90329      0.63819  1.0000
  O2          0.88704      0.82495      0.47003  1.0000
  O2          0.20052      0.09818      0.80517  1.0000
  O2          0.88773      0.10183      0.14103  1.0000
  O2          0.22198      0.14286      0.36287  1.0000
  O2          0.92165      0.78580      0.03231  1.0000
  O2          0.86861      0.09889      0.69566  1.0000
  O2          0.77176      0.87200      0.86223  1.0000
  O2          0.08143      0.23136      0.53100  1.0000
  O2          0.12122      0.89508      0.19593  1.0000
  O2          0.94277      0.86363      0.25210  1.0000
  O2          0.14272      0.09720      0.58434  1.0000
  O2          0.92577      0.05408      0.91857  1.0000
  O2          0.05723      0.14758      0.75129  1.0000
  O2          0.86044      0.92100      0.08590  1.0000
  O2          0.08582      0.95665      0.41807  1.0000
  O2          0.88768      0.17950      0.98243  1.0000
  O2          0.81317      0.71013      0.31555  1.0000
  O2          0.29720      0.12352      0.64945  1.0000
  O2          0.10368      0.82449      0.48228  1.0000
  O2          0.17183      0.29920      0.81861  1.0000
  O2          0.69251      0.87137      0.14974  1.0000
  O2          0.21801      0.92318      0.35624  1.0000
  O2          0.70649      0.78843      0.02193  1.0000
  O2          0.08730      0.31515      0.68969  1.0000
  O2          0.80138      0.10129      0.85579  1.0000
  O2          0.29976      0.23650      0.52208  1.0000
  O2          0.89230      0.69383      0.18862  1.0000
  O3          0.30683      0.62599      0.24813  1.0000
  O1          0.38379      0.70255      0.58183  1.0000
  O3          0.32081      0.69991      0.91155  1.0000
  O1          0.69675      0.39159      0.75095  1.0000
  O3          0.64988      0.32926      0.08828  1.0000
  O1          0.69278      0.32158      0.42044  1.0000
  O2          0.36033      0.33310      0.97374  1.0000
  O2          0.67222      0.03402      0.30601  1.0000
  O2          0.97438      0.65758      0.63850  1.0000
  O2          0.64001      0.68825      0.46904  1.0000
  O3          0.33024      0.98202      0.80590  1.0000
  O3          0.03148      0.34611      0.14168  1.0000
  O2          0.34987      0.38996      0.36435  1.0000
  O3          0.05225      0.67125      0.03515  1.0000
  O2          0.62142      0.97914      0.70042  1.0000
  O3          0.65365      0.62689      0.86658  1.0000
  O2          0.96594      0.36221      0.53351  1.0000
  O3          0.36622      0.02755      0.19873  1.0000
  O3          0.75848      0.28003      0.01503  1.0000
  O3          0.72179      0.48207      0.34695  1.0000
  O3          0.52704      0.26085      0.68019  1.0000
  O3          0.24307      0.73357      0.51183  1.0000
  O2          0.28209      0.53353      0.84808  1.0000
  O2          0.46171      0.74861      0.18266  1.0000
  O3          0.30376      0.77586      0.32910  1.0000
  O3          0.47530      0.70470      0.99482  1.0000
  O3          0.23361      0.54796      0.66204  1.0000
  O3          0.70679      0.23889      0.82974  1.0000
  O3          0.53146      0.32202      0.49707  1.0000
  O2          0.77916      0.45989      0.15946  1.0000
  O3          0.80366      0.53546      0.02739  1.0000
  O3          0.46955      0.25689      0.36332  1.0000
  O3          0.75225      0.23042      0.69464  1.0000
  O3          0.21691      0.47969      0.52806  1.0000
  O2          0.51988      0.74264      0.86085  1.0000
  O2          0.25813      0.77978      0.19686  1.0000
  O3          0.55902      0.78124      0.30939  1.0000
  O3          0.22593      0.45123      0.97821  1.0000
  O3          0.22649      0.79546      0.64223  1.0000
  O3          0.45042      0.23387      0.81028  1.0000
  O3          0.77880      0.57568      0.47747  1.0000
  O2          0.77969      0.24236      0.13798  1.0000
  O2          0.21789      0.33124      0.90271  1.0000
  O2          0.67190      0.89789      0.23381  1.0000
  O2          0.10572      0.79431      0.56672  1.0000
  O2          0.77967      0.68565      0.39966  1.0000
  O2          0.33038      0.11570      0.73408  1.0000
  O2          0.90577      0.22614      0.06693  1.0000
  O2          0.34252      0.25426      0.43661  1.0000
  O2          0.90320      0.65959      0.10410  1.0000
  O2          0.76743      0.11497      0.76975  1.0000
  O2          0.65803      0.76432      0.93613  1.0000
  O2          0.10343      0.35743      0.60396  1.0000
  O2          0.23918      0.90081      0.27050  1.0000
  O2          0.57964      0.55664      0.98929  1.0000
  O2          0.44930      0.02713      0.32405  1.0000
  O2          0.98304      0.44465      0.65663  1.0000
  O2          0.42703      0.46720      0.48706  1.0000
  O3          0.56673      0.98715      0.82333  1.0000
  O3          0.03213      0.59489      0.16249  1.0000
  O2          0.57419      0.58104      0.34376  1.0000
  O3          0.00327      0.42123      0.00666  1.0000
  O2          0.43072      0.01583      0.67757  1.0000
  O3          0.41175      0.41424      0.84488  1.0000
  O2          0.99675      0.58696      0.51239  1.0000
  O3          0.57909      0.99868      0.17562  1.0000
  O3          0.58963      0.15097      0.25245  1.0000
  O2          0.85858      0.46008      0.58308  1.0000
  O3          0.55556      0.40462      0.92010  1.0000
  O3          0.40791      0.85964      0.74359  1.0000
  O1          0.18176      0.56587      0.07969  1.0000
  O2          0.44495      0.60107      0.41189  1.0000
  F           0.44713      0.86773      0.26051  1.0000
  F           0.14729      0.60193      0.59090  1.0000
  F           0.41513      0.55647      0.92622  1.0000
  F           0.56148      0.15180      0.75972  1.0000
  F           0.94363      0.46051      0.09189  1.0000
  F           0.58784      0.45435      0.42472  1.0000
