data_cif

_audit_creation_method             'generated by GULP'

_symmetry_space_group_name_H-M     'P 1'
_symmetry_Int_Tables_number        1
_symmetry_cell_setting             triclinic

_cell_length_a                       12.1016
_cell_length_b                       12.1113
_cell_length_c                       29.8218
_cell_angle_alpha                   90.3579
_cell_angle_beta                    88.7637
_cell_angle_gamma                  120.0416

loop_
_atom_site_label
_atom_site_fract_x
_atom_site_fract_y
_atom_site_fract_z
_atom_site_occupancy
  Ge          0.69960      0.37570      0.03389  1.0000
  Ge          0.60129      0.31044      0.36954  1.0000
  Ge          0.65991      0.26480      0.70256  1.0000
  Ge          0.27237      0.59185      0.53674  1.0000
  Ge          0.37043      0.67267      0.86885  1.0000
  Ge          0.32616      0.70644      0.20706  1.0000
  Si          0.35777      0.67599      0.30473  1.0000
  Si          0.31227      0.61422      0.97198  1.0000
  Ge          0.29948      0.66575      0.63423  1.0000
  Si          0.62563      0.31566      0.79907  1.0000
  Ge          0.67078      0.35110      0.46774  1.0000
  Si          0.69418      0.31880      0.13659  1.0000
  Ge          0.52539      0.41247      0.96640  1.0000
  Si          0.56430      0.09561      0.30349  1.0000
  Si          0.87887      0.44436      0.63596  1.0000
  Si          0.45342      0.55253      0.47205  1.0000
  Ge          0.41970      0.89642      0.80374  1.0000
  Ge          0.11379      0.53437      0.14059  1.0000
  Ge          0.40657      0.50604      0.36836  1.0000
  Ge          0.08990      0.56539      0.03957  1.0000
  Si          0.47064      0.87967      0.70005  1.0000
  Ge          0.56615      0.47730      0.86672  1.0000
  Si          0.88204      0.39071      0.53355  1.0000
  Ge          0.51816      0.09285      0.19945  1.0000
  Si          0.29025      0.39229      0.84644  1.0000
  Si          0.59675      0.88374      0.18247  1.0000
  Si          0.08640      0.67628      0.51473  1.0000
  Si          0.69457      0.58406      0.34758  1.0000
  Si          0.38990      0.08347      0.68064  1.0000
  Si          0.90175      0.29296      0.01632  1.0000
  Si          0.38395      0.26704      0.48054  1.0000
  Si          0.89243      0.60210      0.14845  1.0000
  Si          0.70680      0.11232      0.81342  1.0000
  Si          0.59927      0.69989      0.98058  1.0000
  Si          0.09717      0.37882      0.64642  1.0000
  Si          0.27741      0.87960      0.31240  1.0000
  Si          0.24446      0.33239      0.94914  1.0000
  Si          0.63992      0.89008      0.28570  1.0000
  Si          0.07810      0.72574      0.61717  1.0000
  Si          0.73532      0.63421      0.45035  1.0000
  Si          0.34144      0.09798      0.78302  1.0000
  Si          0.90926      0.25059      0.11911  1.0000
  Si          0.31880      0.21853      0.37871  1.0000
  Si          0.90931      0.66533      0.04624  1.0000
  Si          0.75371      0.08046      0.71183  1.0000
  Si          0.66143      0.75677      0.87828  1.0000
  Si          0.08358      0.31027      0.54511  1.0000
  Si          0.22875      0.89212      0.21040  1.0000
  Si          0.96451      0.11501      0.96416  1.0000
  Si          0.86228      0.83850      0.29880  1.0000
  Si          0.13687      0.00032      0.63168  1.0000
  Si          0.00794      0.84990      0.46544  1.0000
  Si          0.11676      0.14902      0.79755  1.0000
  Si          0.84832      0.97082      0.13125  1.0000
  Si          0.09618      0.94607      0.36459  1.0000
  Si          0.84397      0.87978      0.03032  1.0000
  Si          0.02485      0.12966      0.69734  1.0000
  Si          0.87809      0.03810      0.86322  1.0000
  Si          0.13251      0.08771      0.53135  1.0000
  Si          0.95635      0.84762      0.19755  1.0000
  O2          0.92718      0.99196      0.99477  1.0000
  O2          0.97971      0.91439      0.33202  1.0000
  O2          0.06456      0.04844      0.66508  1.0000
  O2          0.05412      0.96895      0.49864  1.0000
  O2          0.99608      0.06617      0.83024  1.0000
  O2          0.93105      0.93354      0.16292  1.0000
  O3          0.32367      0.56587      0.34028  1.0000
  O3          0.41943      0.75150      0.67208  1.0000
  O3          0.23226      0.64709      0.00470  1.0000
  O3          0.65438      0.42822      0.83142  1.0000
  O3          0.57524      0.23375      0.16857  1.0000
  O3          0.75554      0.31491      0.50531  1.0000
  O1          0.56572      0.33247      0.00408  1.0000
  O3          0.75761      0.39777      0.66611  1.0000
  O3          0.63827      0.21127      0.33507  1.0000
  O3          0.41184      0.62768      0.50400  1.0000
  O1          0.22823      0.56699      0.17746  1.0000
  O1          0.33325      0.76961      0.83834  1.0000
  O2          0.11547      0.21052      0.96899  1.0000
  O2          0.76510      0.89255      0.30587  1.0000
  O2          0.06814      0.84740      0.63586  1.0000
  O2          0.85485      0.76405      0.47000  1.0000
  O2          0.21840      0.10176      0.80376  1.0000
  O2          0.90014      0.12040      0.13812  1.0000
  O2          0.18461      0.09825      0.36283  1.0000
  O2          0.90362      0.78802      0.02814  1.0000
  O2          0.87168      0.06012      0.69585  1.0000
  O2          0.78133      0.88822      0.85963  1.0000
  O2          0.06605      0.17404      0.52866  1.0000
  O2          0.10799      0.90436      0.19445  1.0000
  O2          0.91338      0.86112      0.24770  1.0000
  O2          0.12523      0.03785      0.58137  1.0000
  O2          0.92936      0.07403      0.91316  1.0000
  O2          0.07044      0.12718      0.74700  1.0000
  O2          0.86029      0.93904      0.07968  1.0000
  O2          0.04579      0.89959      0.41477  1.0000
  O2          0.88776      0.18434      0.98081  1.0000
  O2          0.78974      0.68871      0.31059  1.0000
  O2          0.28528      0.06401      0.64365  1.0000
  O2          0.07179      0.76518      0.47751  1.0000
  O2          0.18421      0.29795      0.81054  1.0000
  O2          0.70078      0.88957      0.14615  1.0000
  O2          0.17722      0.87895      0.34954  1.0000
  O2          0.69471      0.80165      0.01757  1.0000
  O2          0.08892      0.27744      0.68353  1.0000
  O2          0.80834      0.11742      0.84991  1.0000
  O2          0.28155      0.17094      0.51769  1.0000
  O2          0.88120      0.69827      0.18454  1.0000
  O3          0.31089      0.61719      0.25668  1.0000
  O1          0.36791      0.67622      0.58315  1.0000
  O3          0.30837      0.66178      0.92158  1.0000
  O3          0.67463      0.36430      0.74881  1.0000
  O3          0.64531      0.31116      0.08666  1.0000
  O1          0.68163      0.29706      0.41615  1.0000
  O3          0.35908      0.31452      0.96503  1.0000
  O2          0.64381      0.01883      0.30147  1.0000
  O2          0.94962      0.60024      0.63361  1.0000
  O2          0.60872      0.63744      0.46516  1.0000
  O3          0.32714      0.96808      0.80133  1.0000
  O3          0.03840      0.36525      0.13568  1.0000
  O3          0.31751      0.34257      0.36066  1.0000
  O3          0.03717      0.67598      0.02660  1.0000
  O2          0.62543      0.95272      0.69563  1.0000
  O3          0.67513      0.64350      0.85726  1.0000
  O2          0.95594      0.31032      0.52904  1.0000
  O3          0.35418      0.02205      0.19402  1.0000
  O3          0.77613      0.30277      0.00854  1.0000
  O3          0.69150      0.45399      0.33701  1.0000
  O3          0.51905      0.20995      0.66905  1.0000
  O3          0.21625      0.67793      0.50410  1.0000
  O3          0.29586      0.52694      0.84173  1.0000
  O3          0.46902      0.75470      0.17373  1.0000
  O2          0.28040      0.74946      0.32043  1.0000
  O2          0.46333      0.69365      0.98549  1.0000
  O3          0.22869      0.50732      0.65400  1.0000
  O2          0.70459      0.24415      0.81597  1.0000
  O3          0.51105      0.26040      0.48642  1.0000
  O2          0.75901      0.46733      0.15160  1.0000
  O3          0.78356      0.54028      0.02885  1.0000
  O3          0.43464      0.20785      0.35794  1.0000
  O3          0.76775      0.20463      0.68965  1.0000
  O3          0.20825      0.42432      0.52328  1.0000
  O3          0.53499      0.75569      0.86174  1.0000
  O3          0.22338      0.76897      0.18969  1.0000
  O2          0.51372      0.76823      0.30622  1.0000
  O2          0.26407      0.46259      0.97098  1.0000
  O3          0.20107      0.73277      0.63824  1.0000
  O2          0.47054      0.21559      0.80154  1.0000
  O3          0.73810      0.51590      0.47206  1.0000
  O2          0.79106      0.26332      0.14010  1.0000
  O2          0.22943      0.32749      0.89536  1.0000
  O2          0.65413      0.88568      0.23188  1.0000
  O2          0.08780      0.74059      0.56296  1.0000
  O2          0.75574      0.64226      0.39633  1.0000
  O2          0.32986      0.09462      0.72892  1.0000
  O2          0.89871      0.23233      0.06537  1.0000
  O2          0.31404      0.21190      0.43342  1.0000
  O2          0.90814      0.67257      0.10090  1.0000
  O2          0.76186      0.09043      0.76639  1.0000
  O2          0.66881      0.76145      0.93286  1.0000
  O2          0.09066      0.30800      0.59951  1.0000
  O2          0.21663      0.88325      0.26524  1.0000
  O3          0.58233      0.56342      0.99037  1.0000
  O2          0.41754      0.99846      0.31956  1.0000
  O2          0.98251      0.40823      0.65410  1.0000
  O2          0.41869      0.41188      0.48991  1.0000
  O3          0.56797      0.99602      0.82592  1.0000
  O3          0.00426      0.57842      0.16142  1.0000
  O3          0.55586      0.57071      0.34310  1.0000
  O3          0.03031      0.42281      0.00642  1.0000
  O2          0.40868      0.95901      0.67842  1.0000
  O3          0.42307      0.40125      0.83480  1.0000
  O2          0.96542      0.53187      0.51107  1.0000
  O3          0.58293      0.00841      0.17462  1.0000
  O3          0.56398      0.14314      0.25304  1.0000
  O2          0.84081      0.39342      0.58485  1.0000
  O1          0.59039      0.41165      0.91546  1.0000
  O3          0.42802      0.83973      0.75130  1.0000
  O1          0.17590      0.59537      0.08861  1.0000
  O3          0.39540      0.54173      0.42302  1.0000
  F           0.41492      0.85643      0.23958  1.0000
  F           0.13129      0.53997      0.57547  1.0000
  F           0.47031      0.53056      0.90604  1.0000
  F           0.56915      0.12267      0.73909  1.0000
  F           0.93592      0.47207      0.07485  1.0000
  F           0.54809      0.40276      0.40738  1.0000
