data_cif

_audit_creation_method             'generated by GULP'

_symmetry_space_group_name_H-M     'P 1'
_symmetry_Int_Tables_number        1
_symmetry_cell_setting             triclinic

_cell_length_a                       12.0974
_cell_length_b                       12.1223
_cell_length_c                       29.7325
_cell_angle_alpha                   90.0807
_cell_angle_beta                    90.0888
_cell_angle_gamma                  120.0145

loop_
_atom_site_label
_atom_site_fract_x
_atom_site_fract_y
_atom_site_fract_z
_atom_site_occupancy
  Ge          0.69960      0.37570      0.03389  1.0000
  Ge          0.59164      0.30254      0.36626  1.0000
  Ge          0.67728      0.26717      0.70319  1.0000
  Ge          0.27620      0.58418      0.53415  1.0000
  Ge          0.38589      0.66476      0.86866  1.0000
  Ge          0.30931      0.69981      0.20131  1.0000
  Ge          0.35187      0.66768      0.29923  1.0000
  Si          0.31068      0.62942      0.96591  1.0000
  Ge          0.31307      0.66181      0.63266  1.0000
  Si          0.64483      0.31085      0.79985  1.0000
  Ge          0.66677      0.33933      0.46414  1.0000
  Ge          0.67224      0.30652      0.13279  1.0000
  Si          0.52887      0.42237      0.96899  1.0000
  Si          0.55154      0.08561      0.30043  1.0000
  Si          0.89284      0.44392      0.63802  1.0000
  Si          0.45224      0.54315      0.46819  1.0000
  Ge          0.44175      0.88836      0.80371  1.0000
  Si          0.09190      0.52555      0.13507  1.0000
  Si          0.39284      0.49394      0.36554  1.0000
  Ge          0.08954      0.57398      0.03100  1.0000
  Si          0.48793      0.87910      0.69876  1.0000
  Ge          0.58531      0.47577      0.86417  1.0000
  Ge          0.88516      0.38752      0.53384  1.0000
  Si          0.49870      0.08938      0.19789  1.0000
  Si          0.29606      0.39416      0.84560  1.0000
  Si          0.58115      0.88680      0.17903  1.0000
  Si          0.09277      0.67489      0.51312  1.0000
  Si          0.67763      0.57495      0.34622  1.0000
  Si          0.40677      0.08407      0.68075  1.0000
  Si          0.88232      0.28514      0.01241  1.0000
  Si          0.38154      0.25805      0.47785  1.0000
  Si          0.87334      0.59321      0.14448  1.0000
  Si          0.72908      0.11108      0.81237  1.0000
  Ge          0.59753      0.70975      0.97722  1.0000
  Si          0.11172      0.37641      0.64687  1.0000
  Si          0.26699      0.86945      0.31198  1.0000
  Si          0.24934      0.34913      0.94872  1.0000
  Si          0.63467      0.88795      0.28172  1.0000
  Si          0.09199      0.72409      0.61624  1.0000
  Si          0.73321      0.62425      0.44883  1.0000
  Si          0.36226      0.09337      0.78349  1.0000
  Si          0.89185      0.24334      0.11562  1.0000
  Si          0.31064      0.21137      0.37632  1.0000
  Si          0.88705      0.65885      0.04217  1.0000
  Si          0.77118      0.08181      0.71025  1.0000
  Si          0.67063      0.76453      0.87395  1.0000
  Si          0.08829      0.30330      0.54502  1.0000
  Si          0.21647      0.88796      0.21023  1.0000
  Si          0.97622      0.12371      0.96447  1.0000
  Si          0.85062      0.82959      0.29764  1.0000
  Si          0.15080      0.99809      0.63135  1.0000
  Si          0.00806      0.84461      0.46438  1.0000
  Si          0.13567      0.14153      0.79743  1.0000
  Si          0.83784      0.97144      0.13140  1.0000
  Si          0.08966      0.94033      0.36361  1.0000
  Si          0.84580      0.88969      0.03033  1.0000
  Si          0.04064      0.12710      0.69687  1.0000
  Si          0.90063      0.03584      0.86277  1.0000
  Si          0.13687      0.08065      0.53071  1.0000
  Si          0.94600      0.84099      0.19695  1.0000
  O2          0.94012      0.00902      0.99915  1.0000
  O2          0.96715      0.89941      0.33228  1.0000
  O2          0.07863      0.04644      0.66411  1.0000
  O2          0.05023      0.96104      0.49877  1.0000
  O2          0.02087      0.06278      0.83210  1.0000
  O2          0.90704      0.92534      0.16654  1.0000
  O3          0.31711      0.54761      0.33803  1.0000
  O3          0.43759      0.75272      0.66926  1.0000
  O3          0.22681      0.65912      0.99965  1.0000
  O3          0.67305      0.42179      0.83494  1.0000
  O3          0.54988      0.21818      0.17041  1.0000
  O1          0.74920      0.30376      0.50263  1.0000
  O3          0.56517      0.33972      0.99908  1.0000
  O3          0.77916      0.40531      0.67090  1.0000
  O3          0.62698      0.20674      0.32989  1.0000
  O3          0.40868      0.61900      0.49840  1.0000
  O3          0.20805      0.56543      0.16698  1.0000
  O1          0.34992      0.76341      0.83592  1.0000
  O2          0.12673      0.22456      0.96984  1.0000
  O2          0.76589      0.89791      0.30064  1.0000
  O2          0.08445      0.84567      0.63612  1.0000
  O2          0.85560      0.75378      0.46817  1.0000
  O2          0.23826      0.09551      0.80358  1.0000
  O2          0.90227      0.12394      0.13582  1.0000
  O2          0.17427      0.09304      0.35974  1.0000
  O2          0.89561      0.78954      0.02490  1.0000
  O2          0.88788      0.06145      0.69378  1.0000
  O2          0.80258      0.88650      0.85658  1.0000
  O2          0.07147      0.16733      0.52945  1.0000
  O2          0.09873      0.90639      0.19344  1.0000
  O2          0.90497      0.84281      0.24782  1.0000
  O2          0.13709      0.03244      0.58065  1.0000
  O2          0.94574      0.06913      0.91421  1.0000
  O2          0.08255      0.11665      0.74704  1.0000
  O2          0.85947      0.93570      0.08175  1.0000
  O2          0.04439      0.89856      0.41427  1.0000
  O2          0.89460      0.19194      0.97589  1.0000
  O2          0.76425      0.68063      0.30902  1.0000
  O2          0.30002      0.06478      0.64374  1.0000
  O2          0.07982      0.76690      0.47627  1.0000
  O2          0.20199      0.29111      0.80879  1.0000
  O2          0.68704      0.90502      0.14176  1.0000
  O2          0.17245      0.87539      0.34940  1.0000
  O3          0.69963      0.82276      0.01659  1.0000
  O2          0.10687      0.27601      0.68421  1.0000
  O2          0.83447      0.11817      0.84846  1.0000
  O2          0.28346      0.16211      0.51536  1.0000
  O2          0.87891      0.69406      0.18163  1.0000
  O1          0.29482      0.60166      0.24803  1.0000
  O1          0.37381      0.66651      0.58087  1.0000
  O3          0.30113      0.67333      0.91634  1.0000
  O3          0.69094      0.36576      0.75075  1.0000
  O1          0.60636      0.29621      0.08146  1.0000
  O1          0.67524      0.28483      0.41224  1.0000
  O2          0.37319      0.34140      0.96280  1.0000
  O2          0.63595      0.01448      0.29863  1.0000
  O2          0.96412      0.59893      0.63219  1.0000
  O2          0.60806      0.62590      0.46608  1.0000
  O3          0.35245      0.96606      0.80055  1.0000
  O2          0.02069      0.37041      0.12980  1.0000
  O2          0.31142      0.34005      0.36027  1.0000
  O3          0.01454      0.66293      0.02480  1.0000
  O2          0.64249      0.95386      0.69409  1.0000
  O3          0.67137      0.63937      0.85594  1.0000
  O3          0.96015      0.29828      0.52824  1.0000
  O2          0.34447      0.01556      0.19359  1.0000
  O3          0.75372      0.28555      0.00220  1.0000
  O3          0.67801      0.44758      0.33456  1.0000
  O3          0.53515      0.21142      0.66930  1.0000
  O3          0.22043      0.67287      0.50243  1.0000
  O3          0.30052      0.52429      0.83517  1.0000
  O3          0.45331      0.75752      0.16863  1.0000
  O3          0.26411      0.73781      0.31919  1.0000
  O3          0.45731      0.71288      0.98306  1.0000
  O3          0.24442      0.50517      0.65329  1.0000
  O2          0.72722      0.24359      0.81656  1.0000
  O3          0.50879      0.25221      0.48396  1.0000
  O3          0.74116      0.46456      0.15187  1.0000
  O3          0.76247      0.54227      0.02142  1.0000
  O3          0.42341      0.20064      0.35419  1.0000
  O3          0.78257      0.20561      0.68857  1.0000
  O3          0.21193      0.41696      0.52280  1.0000
  O3          0.55277      0.77335      0.85439  1.0000
  O3          0.20586      0.76415      0.18859  1.0000
  O3          0.51773      0.76350      0.30253  1.0000
  O2          0.25478      0.47484      0.96940  1.0000
  O3          0.21599      0.72962      0.63695  1.0000
  O2          0.48958      0.21590      0.80308  1.0000
  O3          0.73955      0.50583      0.46861  1.0000
  O3          0.76997      0.23960      0.13745  1.0000
  O2          0.23128      0.33916      0.89476  1.0000
  O2          0.64273      0.88298      0.22737  1.0000
  O2          0.09763      0.73873      0.56204  1.0000
  O2          0.74532      0.63475      0.39447  1.0000
  O2          0.35013      0.09567      0.72915  1.0000
  O2          0.88014      0.22384      0.06156  1.0000
  O2          0.30774      0.19934      0.43082  1.0000
  O2          0.88272      0.66204      0.09705  1.0000
  O2          0.78365      0.09330      0.76497  1.0000
  O3          0.68098      0.77530      0.92844  1.0000
  O2          0.09898      0.30460      0.59978  1.0000
  O2          0.20547      0.87916      0.26484  1.0000
  O3          0.56569      0.55951      0.99028  1.0000
  O2          0.41125      0.98360      0.31961  1.0000
  O2          0.99931      0.40856      0.65488  1.0000
  O2          0.41303      0.40215      0.48666  1.0000
  O3          0.59169      0.99717      0.82466  1.0000
  O2          0.98680      0.56235      0.15234  1.0000
  O2          0.53346      0.55262      0.34306  1.0000
  O3          0.00571      0.42480      0.00681  1.0000
  O2          0.42559      0.96011      0.67809  1.0000
  O3          0.43423      0.40593      0.84100  1.0000
  O3          0.96896      0.53536      0.50839  1.0000
  O2          0.55704      0.00726      0.17521  1.0000
  O2          0.54061      0.12636      0.24938  1.0000
  O3          0.84071      0.38530      0.58859  1.0000
  O3          0.59221      0.44220      0.91964  1.0000
  O3          0.44971      0.83806      0.74973  1.0000
  O3          0.13966      0.58231      0.08530  1.0000
  O2          0.39813      0.53343      0.41738  1.0000
  F           0.39793      0.83836      0.24027  1.0000
  F           0.13394      0.53354      0.57284  1.0000
  F           0.44854      0.58084      0.90468  1.0000
  F           0.59034      0.12684      0.73975  1.0000
  F           0.84532      0.43024      0.07154  1.0000
  F           0.54326      0.39049      0.40653  1.0000
