data_cif

_audit_creation_method             'generated by GULP'

_symmetry_space_group_name_H-M     'P 1'
_symmetry_Int_Tables_number        1
_symmetry_cell_setting             triclinic

_cell_length_a                       12.1036
_cell_length_b                       12.0965
_cell_length_c                       29.6749
_cell_angle_alpha                   90.6897
_cell_angle_beta                    89.2535
_cell_angle_gamma                  119.9184

loop_
_atom_site_label
_atom_site_fract_x
_atom_site_fract_y
_atom_site_fract_z
_atom_site_occupancy
  Ge          0.69960      0.37570      0.03389  1.0000
  Ge          0.60623      0.31788      0.37105  1.0000
  Ge          0.68395      0.28401      0.70008  1.0000
  Ge          0.29121      0.60063      0.54233  1.0000
  Ge          0.38564      0.66175      0.87631  1.0000
  Ge          0.32583      0.70543      0.20766  1.0000
  Si          0.36235      0.67960      0.30629  1.0000
  Si          0.30508      0.61923      0.97471  1.0000
  Si          0.32550      0.68214      0.64046  1.0000
  Si          0.63016      0.29121      0.80356  1.0000
  Si          0.68125      0.35099      0.46849  1.0000
  Si          0.68891      0.31432      0.13679  1.0000
  Si          0.52111      0.41073      0.97095  1.0000
  Si          0.56846      0.10032      0.30515  1.0000
  Si          0.90026      0.46501      0.63725  1.0000
  Si          0.47118      0.56188      0.47655  1.0000
  Si          0.42130      0.87190      0.80915  1.0000
  Si          0.11395      0.52715      0.14312  1.0000
  Ge          0.41782      0.51598      0.37167  1.0000
  Ge          0.08460      0.56271      0.04304  1.0000
  Ge          0.48570      0.90141      0.70899  1.0000
  Ge          0.57780      0.46600      0.86670  1.0000
  Ge          0.90314      0.40729      0.53279  1.0000
  Ge          0.51796      0.09111      0.20055  1.0000
  Si          0.29190      0.39014      0.84995  1.0000
  Si          0.59699      0.88198      0.18379  1.0000
  Si          0.11468      0.69378      0.51589  1.0000
  Si          0.70277      0.59051      0.35000  1.0000
  Si          0.39961      0.08548      0.68362  1.0000
  Si          0.89898      0.29004      0.01731  1.0000
  Si          0.39985      0.27514      0.48188  1.0000
  Ge          0.89590      0.59875      0.15076  1.0000
  Si          0.70794      0.08822      0.81611  1.0000
  Ge          0.59399      0.69877      0.98386  1.0000
  Ge          0.11563      0.39335      0.64978  1.0000
  Si          0.28291      0.88429      0.31452  1.0000
  Si          0.24461      0.33937      0.95300  1.0000
  Si          0.64327      0.89345      0.28742  1.0000
  Si          0.10637      0.74150      0.61908  1.0000
  Si          0.74953      0.63382      0.45365  1.0000
  Si          0.34847      0.07783      0.78736  1.0000
  Si          0.90626      0.24979      0.12067  1.0000
  Si          0.32672      0.22682      0.38005  1.0000
  Si          0.90706      0.66586      0.04805  1.0000
  Si          0.76517      0.07737      0.71394  1.0000
  Si          0.66770      0.75354      0.88063  1.0000
  Si          0.10189      0.31875      0.54668  1.0000
  Si          0.23052      0.89248      0.21228  1.0000
  Si          0.97115      0.11534      0.96697  1.0000
  Si          0.86746      0.84513      0.30196  1.0000
  Si          0.15645      0.01581      0.63348  1.0000
  Si          0.02501      0.85592      0.46747  1.0000
  Si          0.12932      0.13713      0.80051  1.0000
  Si          0.85129      0.97345      0.13453  1.0000
  Si          0.10385      0.95364      0.36690  1.0000
  Si          0.84554      0.88267      0.03352  1.0000
  Si          0.04643      0.14167      0.70006  1.0000
  Si          0.88948      0.02501      0.86574  1.0000
  Si          0.15223      0.09612      0.53215  1.0000
  Si          0.95779      0.84876      0.20107  1.0000
  O2          0.93170      0.99521      0.99870  1.0000
  O2          0.98509      0.92281      0.33538  1.0000
  O2          0.07300      0.05525      0.66478  1.0000
  O2          0.06605      0.97625      0.50018  1.0000
  O2          0.00724      0.05838      0.83245  1.0000
  O2          0.93198      0.93650      0.16734  1.0000
  O3          0.33221      0.57256      0.34260  1.0000
  O3          0.43265      0.76171      0.67485  1.0000
  O3          0.22521      0.64797      0.00942  1.0000
  O3          0.66302      0.40904      0.83574  1.0000
  O3          0.56951      0.22681      0.16763  1.0000
  O3          0.76327      0.32058      0.50252  1.0000
  O3          0.56449      0.33204      0.00152  1.0000
  O3          0.77683      0.42071      0.66823  1.0000
  O3          0.64305      0.21711      0.33699  1.0000
  O3          0.43250      0.63622      0.51018  1.0000
  O3          0.22674      0.56359      0.17644  1.0000
  O3          0.34864      0.76373      0.84427  1.0000
  O2          0.12173      0.21360      0.97327  1.0000
  O2          0.76828      0.89693      0.30861  1.0000
  O2          0.10323      0.86486      0.63947  1.0000
  O2          0.87464      0.75711      0.47447  1.0000
  O2          0.22583      0.08298      0.80795  1.0000
  O2          0.90207      0.12393      0.14112  1.0000
  O2          0.19112      0.10580      0.36522  1.0000
  O2          0.89692      0.78395      0.02779  1.0000
  O2          0.89579      0.08669      0.69624  1.0000
  O2          0.80086      0.87341      0.86243  1.0000
  O2          0.09079      0.18596      0.52855  1.0000
  O2          0.10849      0.90148      0.19561  1.0000
  O2          0.92129      0.87006      0.25144  1.0000
  O2          0.14379      0.04567      0.58224  1.0000
  O2          0.94226      0.07001      0.91563  1.0000
  O2          0.08373      0.11773      0.74936  1.0000
  O2          0.87169      0.94345      0.08345  1.0000
  O2          0.05201      0.90446      0.41663  1.0000
  O2          0.89131      0.18440      0.98105  1.0000
  O2          0.79732      0.69549      0.31350  1.0000
  O2          0.30378      0.09574      0.64799  1.0000
  O2          0.10629      0.78767      0.47902  1.0000
  O2          0.19794      0.28650      0.81314  1.0000
  O2          0.70249      0.89105      0.14742  1.0000
  O2          0.18428      0.88588      0.35166  1.0000
  O3          0.69701      0.80988      0.02362  1.0000
  O3          0.11985      0.28989      0.68986  1.0000
  O2          0.80825      0.09351      0.85313  1.0000
  O2          0.30200      0.17439      0.51871  1.0000
  O3          0.88274      0.70014      0.19037  1.0000
  O3          0.31317      0.61906      0.25775  1.0000
  O3          0.37840      0.68569      0.59006  1.0000
  O3          0.30142      0.66620      0.92449  1.0000
  O3          0.67943      0.34060      0.75344  1.0000
  O3          0.64231      0.30747      0.08575  1.0000
  O3          0.68535      0.30147      0.41901  1.0000
  O2          0.36702      0.32714      0.96653  1.0000
  O2          0.64814      0.02361      0.30249  1.0000
  O2          0.97103      0.61936      0.63289  1.0000
  O2          0.62738      0.64003      0.47192  1.0000
  O2          0.34089      0.94950      0.80507  1.0000
  O2          0.03891      0.37010      0.13597  1.0000
  O3          0.32260      0.35187      0.36500  1.0000
  O3          0.03303      0.67309      0.02867  1.0000
  O3          0.64933      0.94876      0.69617  1.0000
  O3          0.66869      0.62903      0.86040  1.0000
  O3          0.97759      0.31762      0.52683  1.0000
  O3          0.35421      0.02081      0.19516  1.0000
  O3          0.77362      0.30043      0.00816  1.0000
  O3          0.70053      0.46070      0.33881  1.0000
  O3          0.53431      0.21512      0.67625  1.0000
  O3          0.24088      0.68758      0.50744  1.0000
  O3          0.29845      0.52207      0.84163  1.0000
  O3          0.46890      0.75229      0.17494  1.0000
  O2          0.28511      0.75339      0.32205  1.0000
  O3          0.45517      0.70134      0.99009  1.0000
  O3          0.25681      0.53167      0.65584  1.0000
  O2          0.70556      0.22054      0.82119  1.0000
  O2          0.53282      0.27494      0.48656  1.0000
  O3          0.75002      0.45929      0.15359  1.0000
  O3          0.77796      0.53952      0.03129  1.0000
  O3          0.44010      0.21660      0.35694  1.0000
  O3          0.76620      0.20240      0.69413  1.0000
  O3          0.23173      0.43461      0.52866  1.0000
  O3          0.55193      0.76672      0.86293  1.0000
  O3          0.22225      0.76703      0.19186  1.0000
  O2          0.51777      0.77249      0.30782  1.0000
  O2          0.25608      0.46538      0.97530  1.0000
  O2          0.21949      0.72968      0.64122  1.0000
  O2          0.47648      0.20040      0.80584  1.0000
  O2          0.74630      0.50678      0.47146  1.0000
  O2          0.78771      0.26049      0.14113  1.0000
  O2          0.22811      0.33121      0.89900  1.0000
  O2          0.65635      0.88523      0.23339  1.0000
  O2          0.11716      0.75759      0.56501  1.0000
  O2          0.76394      0.64824      0.39949  1.0000
  O2          0.33818      0.08328      0.73338  1.0000
  O2          0.89394      0.22933      0.06672  1.0000
  O2          0.32899      0.21626      0.43483  1.0000
  O3          0.91051      0.68246      0.10231  1.0000
  O2          0.77233      0.08302      0.76888  1.0000
  O3          0.68049      0.76265      0.93501  1.0000
  O3          0.09626      0.30641      0.60110  1.0000
  O2          0.22084      0.88797      0.26732  1.0000
  O3          0.56593      0.54681      0.99436  1.0000
  O2          0.42343      0.00256      0.32182  1.0000
  O3          0.99080      0.42065      0.66053  1.0000
  O2          0.42595      0.41641      0.49179  1.0000
  O2          0.56779      0.97203      0.82535  1.0000
  O3          0.01159      0.56478      0.16438  1.0000
  O3          0.56421      0.57766      0.34482  1.0000
  O3          0.02649      0.42082      0.00954  1.0000
  O3          0.40553      0.96002      0.67365  1.0000
  O3          0.42885      0.39886      0.84319  1.0000
  O3          0.98781      0.55664      0.50937  1.0000
  O3          0.58283      0.00634      0.17587  1.0000
  O3          0.56556      0.14553      0.25428  1.0000
  O3          0.85520      0.40302      0.58798  1.0000
  O3          0.58352      0.42516      0.92162  1.0000
  O3          0.42254      0.81763      0.75962  1.0000
  O3          0.16554      0.58876      0.09424  1.0000
  O3          0.41812      0.56007      0.42654  1.0000
  F           0.41765      0.85772      0.24050  1.0000
  F           0.13689      0.53980      0.57593  1.0000
  F           0.44666      0.56877      0.90968  1.0000
  F           0.54823      0.05876      0.74044  1.0000
  F           0.92510      0.47148      0.07655  1.0000
  F           0.55338      0.41072      0.40711  1.0000
