data_cif

_audit_creation_method             'generated by GULP'

_symmetry_space_group_name_H-M     'P 1'
_symmetry_Int_Tables_number        1
_symmetry_cell_setting             triclinic

_cell_length_a                       12.0821
_cell_length_b                       12.1095
_cell_length_c                       29.8167
_cell_angle_alpha                   88.9441
_cell_angle_beta                    91.3844
_cell_angle_gamma                  119.9081

loop_
_atom_site_label
_atom_site_fract_x
_atom_site_fract_y
_atom_site_fract_z
_atom_site_occupancy
  Si          0.69960      0.37570      0.03389  1.0000
  Ge          0.64111      0.32107      0.37177  1.0000
  Si          0.69114      0.31830      0.70212  1.0000
  Ge          0.32553      0.63540      0.53619  1.0000
  Ge          0.38668      0.67245      0.86960  1.0000
  Si          0.31654      0.67476      0.20505  1.0000
  Ge          0.40082      0.72187      0.30172  1.0000
  Si          0.32886      0.61729      0.97255  1.0000
  Ge          0.30048      0.67288      0.63498  1.0000
  Ge          0.62542      0.27997      0.79888  1.0000
  Ge          0.68556      0.39661      0.46911  1.0000
  Ge          0.70432      0.31857      0.13696  1.0000
  Ge          0.52456      0.42180      0.96601  1.0000
  Si          0.59816      0.10723      0.30606  1.0000
  Ge          0.91140      0.48714      0.63865  1.0000
  Si          0.49599      0.59640      0.46997  1.0000
  Si          0.42010      0.89210      0.80604  1.0000
  Ge          0.09518      0.51243      0.13745  1.0000
  Si          0.44048      0.54102      0.36761  1.0000
  Ge          0.11703      0.57415      0.03746  1.0000
  Ge          0.46679      0.89455      0.70148  1.0000
  Ge          0.58244      0.44756      0.86619  1.0000
  Si          0.90606      0.43857      0.53484  1.0000
  Ge          0.53167      0.09442      0.20233  1.0000
  Si          0.29366      0.38658      0.85616  1.0000
  Si          0.60176      0.87819      0.19159  1.0000
  Si          0.12444      0.72337      0.52580  1.0000
  Si          0.72510      0.60730      0.35812  1.0000
  Si          0.40477      0.12022      0.69247  1.0000
  Si          0.89982      0.28870      0.02426  1.0000
  Si          0.41399      0.31148      0.49013  1.0000
  Si          0.90617      0.59938      0.15764  1.0000
  Si          0.70884      0.09425      0.82215  1.0000
  Si          0.61046      0.69365      0.98920  1.0000
  Si          0.11777      0.40200      0.65782  1.0000
  Si          0.31293      0.90290      0.32451  1.0000
  Si          0.24600      0.32969      0.95862  1.0000
  Si          0.67946      0.90618      0.29332  1.0000
  Si          0.11584      0.77449      0.62809  1.0000
  Si          0.77871      0.67763      0.45935  1.0000
  Si          0.34244      0.09802      0.79461  1.0000
  Si          0.91034      0.23345      0.12658  1.0000
  Si          0.35850      0.26043      0.38764  1.0000
  Si          0.91745      0.65739      0.05463  1.0000
  Si          0.75442      0.09920      0.71952  1.0000
  Si          0.67050      0.73343      0.88716  1.0000
  Si          0.10488      0.35336      0.55477  1.0000
  Si          0.25095      0.89223      0.22208  1.0000
  Si          0.96593      0.11199      0.97469  1.0000
  Si          0.90159      0.85652      0.30739  1.0000
  Si          0.15718      0.04622      0.64050  1.0000
  Si          0.05006      0.90060      0.47363  1.0000
  Si          0.11376      0.13851      0.80743  1.0000
  Si          0.84668      0.95239      0.14124  1.0000
  Si          0.14311      0.98571      0.37322  1.0000
  Si          0.85258      0.87409      0.04022  1.0000
  Si          0.02874      0.14811      0.70627  1.0000
  Si          0.88138      0.01315      0.87422  1.0000
  Si          0.16100      0.13780      0.53918  1.0000
  Si          0.97512      0.84164      0.20690  1.0000
  O2          0.93743      0.99757      0.00942  1.0000
  O2          0.02291      0.93738      0.33959  1.0000
  O2          0.06463      0.06998      0.67196  1.0000
  O2          0.08846      0.02041      0.50539  1.0000
  O2          0.00071      0.05740      0.84176  1.0000
  O2          0.93753      0.92499      0.17421  1.0000
  O3          0.36535      0.58686      0.33717  1.0000
  O1          0.43207      0.76878      0.67017  1.0000
  O3          0.24310      0.65535      0.00064  1.0000
  O1          0.66624      0.41667      0.82964  1.0000
  O1          0.57193      0.22256      0.16838  1.0000
  O3          0.78812      0.36259      0.50334  1.0000
  O3          0.58445      0.34148      0.00206  1.0000
  O3          0.77001      0.43015      0.66722  1.0000
  O3          0.67533      0.23396      0.33466  1.0000
  O3          0.44385      0.67195      0.49750  1.0000
  O3          0.23379      0.56316      0.17229  1.0000
  O3          0.34720      0.76748      0.83712  1.0000
  O2          0.11611      0.21212      0.97820  1.0000
  O2          0.81738      0.92533      0.30954  1.0000
  O2          0.10551      0.89603      0.64429  1.0000
  O2          0.89706      0.81389      0.47575  1.0000
  O2          0.20734      0.07968      0.81143  1.0000
  O2          0.89973      0.10206      0.14477  1.0000
  O2          0.22742      0.13841      0.36882  1.0000
  O2          0.90890      0.77911      0.03501  1.0000
  O2          0.87906      0.09971      0.69969  1.0000
  O2          0.79799      0.86130      0.87002  1.0000
  O2          0.09330      0.22340      0.53492  1.0000
  O2          0.12456      0.88987      0.20125  1.0000
  O2          0.94880      0.86090      0.25749  1.0000
  O2          0.14799      0.08476      0.58947  1.0000
  O2          0.92903      0.05598      0.92492  1.0000
  O2          0.05834      0.12334      0.75704  1.0000
  O2          0.86074      0.91562      0.09126  1.0000
  O2          0.09379      0.94833      0.42350  1.0000
  O2          0.88957      0.18485      0.98755  1.0000
  O2          0.81879      0.70838      0.32096  1.0000
  O2          0.30504      0.12682      0.65616  1.0000
  O2          0.11685      0.81938      0.48886  1.0000
  O2          0.18996      0.28757      0.81984  1.0000
  O2          0.69787      0.87343      0.15493  1.0000
  O2          0.22777      0.92164      0.36165  1.0000
  O2          0.70465      0.80323      0.02463  1.0000
  O2          0.10939      0.29778      0.69467  1.0000
  O2          0.79787      0.07721      0.85954  1.0000
  O2          0.30985      0.22326      0.52730  1.0000
  O2          0.89431      0.69350      0.19334  1.0000
  O3          0.31592      0.62437      0.25517  1.0000
  O1          0.39272      0.68746      0.58757  1.0000
  O3          0.34152      0.67796      0.92348  1.0000
  O3          0.70591      0.37533      0.75059  1.0000
  O3          0.65052      0.32798      0.08446  1.0000
  O1          0.69868      0.31211      0.42322  1.0000
  O3          0.36035      0.31611      0.97948  1.0000
  O2          0.67942      0.03350      0.31003  1.0000
  O3          0.98968      0.65076      0.64613  1.0000
  O2          0.65032      0.67723      0.47497  1.0000
  O2          0.34194      0.96813      0.81039  1.0000
  O3          0.03858      0.34659      0.14703  1.0000
  O2          0.35558      0.38534      0.37034  1.0000
  O3          0.04805      0.67194      0.03739  1.0000
  O3          0.63422      0.97210      0.70344  1.0000
  O3          0.68318      0.61627      0.87302  1.0000
  O2          0.97567      0.35257      0.54058  1.0000
  O3          0.36716      0.02258      0.20445  1.0000
  O2          0.77106      0.29662      0.01985  1.0000
  O3          0.72875      0.47890      0.35144  1.0000
  O2          0.53980      0.25040      0.68630  1.0000
  O3          0.25656      0.72727      0.51858  1.0000
  O3          0.29028      0.51722      0.85158  1.0000
  O2          0.46747      0.74692      0.18856  1.0000
  O3          0.31506      0.77591      0.33565  1.0000
  O2          0.47041      0.67950      0.99549  1.0000
  O3          0.24706      0.52972      0.66770  1.0000
  O3          0.71192      0.22283      0.83293  1.0000
  O3          0.54240      0.31032      0.50132  1.0000
  O3          0.77637      0.46569      0.16282  1.0000
  O2          0.80334      0.52718      0.03427  1.0000
  O3          0.47540      0.25333      0.36743  1.0000
  O2          0.74931      0.22154      0.69913  1.0000
  O3          0.22590      0.47101      0.53267  1.0000
  O3          0.54643      0.72756      0.86304  1.0000
  O2          0.26175      0.77501      0.20297  1.0000
  O3          0.56881      0.78142      0.31501  1.0000
  O2          0.25426      0.46215      0.97389  1.0000
  O3          0.24162      0.78117      0.64827  1.0000
  O3          0.45878      0.21996      0.81585  1.0000
  O3          0.78938      0.56431      0.48180  1.0000
  O3          0.78628      0.23569      0.14405  1.0000
  O2          0.23835      0.31743      0.90420  1.0000
  O2          0.67834      0.89815      0.23871  1.0000
  O2          0.11578      0.78043      0.57329  1.0000
  O2          0.78837      0.67905      0.40497  1.0000
  O2          0.33807      0.10964      0.73997  1.0000
  O2          0.90997      0.22818      0.07199  1.0000
  O2          0.35188      0.24666      0.44189  1.0000
  O2          0.91260      0.66478      0.10855  1.0000
  O2          0.77240      0.10262      0.77368  1.0000
  O2          0.66923      0.75543      0.94056  1.0000
  O2          0.11781      0.34416      0.60870  1.0000
  O2          0.24184      0.89325      0.27622  1.0000
  O3          0.60882      0.56459      0.99942  1.0000
  O2          0.45626      0.02706      0.32718  1.0000
  O3          0.99494      0.41967      0.66306  1.0000
  O2          0.43755      0.45594      0.49313  1.0000
  O2          0.56557      0.97091      0.82582  1.0000
  O3          0.02942      0.58907      0.16953  1.0000
  O2          0.58063      0.57690      0.34977  1.0000
  O3          0.02079      0.42417      0.01382  1.0000
  O3          0.42185      0.00211      0.68141  1.0000
  O3          0.43222      0.41437      0.84436  1.0000
  O2          0.01179      0.57943      0.51711  1.0000
  O3          0.58035      0.99556      0.17967  1.0000
  O3          0.59629      0.14931      0.25496  1.0000
  O3          0.86175      0.45051      0.58414  1.0000
  O1          0.57844      0.38331      0.91796  1.0000
  O3          0.41229      0.84653      0.75579  1.0000
  O1          0.18361      0.57734      0.08834  1.0000
  O2          0.45298      0.59276      0.41851  1.0000
  F           0.45300      0.86541      0.26581  1.0000
  F           0.15408      0.58647      0.59847  1.0000
  F           0.47213      0.51595      0.92866  1.0000
  F           0.56387      0.13724      0.76377  1.0000
  F           0.94476      0.45895      0.09861  1.0000
  F           0.59665      0.44731      0.42958  1.0000
