data_cif

_audit_creation_method             'generated by GULP'

_symmetry_space_group_name_H-M     'P 1'
_symmetry_Int_Tables_number        1
_symmetry_cell_setting             triclinic

_cell_length_a                       12.0854
_cell_length_b                       12.1206
_cell_length_c                       29.8430
_cell_angle_alpha                   90.8569
_cell_angle_beta                    88.5085
_cell_angle_gamma                  120.0137

loop_
_atom_site_label
_atom_site_fract_x
_atom_site_fract_y
_atom_site_fract_z
_atom_site_occupancy
  Si          0.69960      0.37570      0.03389  1.0000
  Ge          0.60238      0.33279      0.36789  1.0000
  Si          0.66662      0.29277      0.69706  1.0000
  Ge          0.28581      0.62314      0.54375  1.0000
  Ge          0.36359      0.67276      0.87502  1.0000
  Ge          0.32788      0.71093      0.21189  1.0000
  Ge          0.37084      0.69706      0.31027  1.0000
  Si          0.30858      0.60991      0.97787  1.0000
  Si          0.30858      0.69004      0.64132  1.0000
  Ge          0.61297      0.30829      0.80068  1.0000
  Ge          0.68431      0.36515      0.46391  1.0000
  Ge          0.69479      0.31960      0.13675  1.0000
  Ge          0.53040      0.41547      0.96817  1.0000
  Si          0.56380      0.11704      0.30052  1.0000
  Ge          0.89023      0.46213      0.63184  1.0000
  Ge          0.45508      0.56078      0.48092  1.0000
  Ge          0.40819      0.88933      0.80921  1.0000
  Ge          0.11471      0.54295      0.14524  1.0000
  Si          0.40069      0.52134      0.37671  1.0000
  Ge          0.08882      0.56895      0.04520  1.0000
  Ge          0.46978      0.90397      0.70999  1.0000
  Ge          0.56493      0.48290      0.86916  1.0000
  Si          0.90239      0.41255      0.52782  1.0000
  Si          0.50794      0.09941      0.19857  1.0000
  Si          0.28721      0.39286      0.85132  1.0000
  Si          0.59578      0.89833      0.18512  1.0000
  Si          0.10331      0.70303      0.51592  1.0000
  Si          0.68762      0.60752      0.35280  1.0000
  Si          0.38448      0.08906      0.68385  1.0000
  Si          0.90471      0.29771      0.01984  1.0000
  Si          0.39867      0.27554      0.48441  1.0000
  Si          0.88708      0.60457      0.15263  1.0000
  Si          0.69809      0.10807      0.81771  1.0000
  Si          0.59743      0.70024      0.98440  1.0000
  Si          0.11099      0.39954      0.64656  1.0000
  Si          0.28033      0.89701      0.31583  1.0000
  Si          0.24580      0.33077      0.95399  1.0000
  Si          0.65107      0.91957      0.28745  1.0000
  Si          0.08839      0.74827      0.61920  1.0000
  Si          0.74191      0.64867      0.45458  1.0000
  Si          0.32534      0.08568      0.78631  1.0000
  Si          0.91744      0.25706      0.12206  1.0000
  Si          0.32209      0.23904      0.38351  1.0000
  Si          0.90376      0.66280      0.05017  1.0000
  Si          0.74898      0.08994      0.71555  1.0000
  Si          0.65697      0.75972      0.88247  1.0000
  Si          0.10864      0.33811      0.54425  1.0000
  Si          0.22613      0.89478      0.21414  1.0000
  Si          0.96422      0.11542      0.96781  1.0000
  Si          0.86498      0.86126      0.30227  1.0000
  Si          0.14300      0.02488      0.63432  1.0000
  Si          0.01639      0.86864      0.46818  1.0000
  Si          0.10969      0.15188      0.80010  1.0000
  Si          0.84945      0.97753      0.13428  1.0000
  Si          0.10038      0.96935      0.36809  1.0000
  Si          0.84093      0.87933      0.03379  1.0000
  Si          0.03132      0.15465      0.69904  1.0000
  Si          0.87348      0.03933      0.86697  1.0000
  Si          0.14627      0.10559      0.53325  1.0000
  Si          0.95565      0.85314      0.20129  1.0000
  O2          0.92363      0.99138      0.99814  1.0000
  O2          0.98294      0.93188      0.33548  1.0000
  O2          0.05978      0.06214      0.66757  1.0000
  O2          0.05771      0.98595      0.50220  1.0000
  O2          0.98681      0.06797      0.83160  1.0000
  O2          0.92386      0.93406      0.16711  1.0000
  O3          0.32995      0.58131      0.35063  1.0000
  O3          0.41087      0.76199      0.67753  1.0000
  O3          0.23223      0.64660      0.01113  1.0000
  O1          0.65002      0.43812      0.83047  1.0000
  O3          0.55714      0.22205      0.16745  1.0000
  O3          0.78261      0.33380      0.49673  1.0000
  O3          0.57853      0.33598      0.00395  1.0000
  O3          0.75137      0.40831      0.66353  1.0000
  O3          0.63703      0.24261      0.32763  1.0000
  O1          0.42643      0.65608      0.51391  1.0000
  O1          0.22781      0.57216      0.18228  1.0000
  O1          0.32539      0.77252      0.84838  1.0000
  O2          0.11631      0.20744      0.97302  1.0000
  O2          0.78435      0.93440      0.30540  1.0000
  O2          0.08729      0.87340      0.63887  1.0000
  O2          0.86562      0.77558      0.47429  1.0000
  O2          0.20160      0.09289      0.80489  1.0000
  O2          0.91519      0.12907      0.13952  1.0000
  O2          0.18458      0.12251      0.36776  1.0000
  O2          0.89399      0.78152      0.03076  1.0000
  O2          0.88124      0.10400      0.69580  1.0000
  O2          0.77761      0.88949      0.86387  1.0000
  O2          0.09570      0.20452      0.52728  1.0000
  O2          0.10761      0.90909      0.19678  1.0000
  O2          0.91710      0.86861      0.25177  1.0000
  O2          0.12836      0.05929      0.58423  1.0000
  O2          0.92992      0.07685      0.91642  1.0000
  O2          0.06744      0.14508      0.74935  1.0000
  O2          0.85980      0.93807      0.08334  1.0000
  O2          0.04873      0.92010      0.41780  1.0000
  O2          0.88992      0.18841      0.98415  1.0000
  O2          0.77379      0.71432      0.31554  1.0000
  O2          0.29168      0.10025      0.64754  1.0000
  O2          0.09048      0.79281      0.47918  1.0000
  O2          0.18051      0.29853      0.81583  1.0000
  O2          0.70036      0.91072      0.14766  1.0000
  O2          0.18592      0.90774      0.35296  1.0000
  O2          0.69127      0.80287      0.02157  1.0000
  O2          0.11140      0.30151      0.68334  1.0000
  O2          0.79944      0.11421      0.85447  1.0000
  O2          0.29625      0.17125      0.52017  1.0000
  O2          0.88053      0.70372      0.18868  1.0000
  O1          0.31760      0.62310      0.26063  1.0000
  O3          0.37113      0.70454      0.59239  1.0000
  O3          0.30040      0.65440      0.92790  1.0000
  O3          0.65838      0.34907      0.74465  1.0000
  O3          0.64730      0.31549      0.08257  1.0000
  O1          0.69067      0.31480      0.41098  1.0000
  O3          0.36369      0.31593      0.96873  1.0000
  O2          0.65052      0.04809      0.30096  1.0000
  O3          0.95625      0.62611      0.63419  1.0000
  O3          0.62186      0.65466      0.47244  1.0000
  O3          0.30721      0.95416      0.80373  1.0000
  O3          0.04606      0.37414      0.13752  1.0000
  O2          0.32481      0.36836      0.36795  1.0000
  O3          0.03259      0.67551      0.03067  1.0000
  O3          0.63541      0.96127      0.69674  1.0000
  O3          0.67277      0.64827      0.86041  1.0000
  O2          0.98107      0.33624      0.52662  1.0000
  O2          0.35372      0.02289      0.19615  1.0000
  O2          0.78012      0.31307      0.01225  1.0000
  O3          0.68366      0.47961      0.33745  1.0000
  O2          0.52518      0.21389      0.67594  1.0000
  O3          0.23667      0.71041      0.50848  1.0000
  O3          0.29201      0.52694      0.84732  1.0000
  O3          0.47077      0.76597      0.17757  1.0000
  O3          0.28165      0.77003      0.32727  1.0000
  O2          0.46049      0.69067      0.99026  1.0000
  O2          0.23667      0.53567      0.65390  1.0000
  O3          0.70296      0.24143      0.81911  1.0000
  O3          0.52726      0.26879      0.48556  1.0000
  O3          0.75238      0.47405      0.15573  1.0000
  O2          0.78046      0.53080      0.03344  1.0000
  O3          0.43413      0.22784      0.35952  1.0000
  O2          0.74089      0.21204      0.69766  1.0000
  O3          0.23466      0.45585      0.52527  1.0000
  O3          0.52877      0.75603      0.86704  1.0000
  O3          0.22091      0.77055      0.19497  1.0000
  O3          0.53619      0.79933      0.31176  1.0000
  O2          0.26322      0.45885      0.97727  1.0000
  O2          0.20190      0.73670      0.64113  1.0000
  O3          0.45198      0.19848      0.80745  1.0000
  O3          0.74733      0.52776      0.47274  1.0000
  O3          0.79720      0.26271      0.14454  1.0000
  O2          0.23022      0.32775      0.90034  1.0000
  O2          0.65762      0.90420      0.23359  1.0000
  O2          0.09658      0.76108      0.56511  1.0000
  O2          0.75912      0.66068      0.40015  1.0000
  O2          0.32295      0.09616      0.73228  1.0000
  O2          0.89826      0.23542      0.06843  1.0000
  O2          0.32208      0.22826      0.43778  1.0000
  O2          0.90449      0.67375      0.10462  1.0000
  O2          0.75400      0.08810      0.76992  1.0000
  O2          0.66596      0.76388      0.93694  1.0000
  O2          0.10936      0.33329      0.59898  1.0000
  O2          0.21461      0.89274      0.26873  1.0000
  O3          0.58555      0.56517      0.99274  1.0000
  O2          0.42270      0.01665      0.32032  1.0000
  O3          0.98526      0.41049      0.65496  1.0000
  O3          0.43066      0.41499      0.49966  1.0000
  O3          0.55846      0.99516      0.83114  1.0000
  O3          0.99623      0.57587      0.16581  1.0000
  O2          0.54458      0.58914      0.35458  1.0000
  O3          0.03298      0.42665      0.01097  1.0000
  O3          0.38825      0.96223      0.67590  1.0000
  O3          0.41984      0.40188      0.83822  1.0000
  O2          0.98584      0.55753      0.50909  1.0000
  O2          0.56961      0.01658      0.17834  1.0000
  O2          0.55321      0.14919      0.24864  1.0000
  O3          0.84795      0.40959      0.57788  1.0000
  O1          0.59127      0.41375      0.91648  1.0000
  O1          0.41047      0.81702      0.76024  1.0000
  O1          0.17771      0.60807      0.09412  1.0000
  O3          0.39058      0.54674      0.42841  1.0000
  F           0.41102      0.85718      0.24644  1.0000
  F           0.13444      0.55540      0.57479  1.0000
  F           0.46966      0.53183      0.90989  1.0000
  F           0.51995      0.05229      0.74586  1.0000
  F           0.93957      0.47470      0.08069  1.0000
  F           0.55485      0.41732      0.41194  1.0000
