data_cif

_audit_creation_method             'generated by GULP'

_symmetry_space_group_name_H-M     'P 1'
_symmetry_Int_Tables_number        1
_symmetry_cell_setting             triclinic

_cell_length_a                       12.1025
_cell_length_b                       12.1070
_cell_length_c                       29.6961
_cell_angle_alpha                   90.7846
_cell_angle_beta                    89.0190
_cell_angle_gamma                  119.9763

loop_
_atom_site_label
_atom_site_fract_x
_atom_site_fract_y
_atom_site_fract_z
_atom_site_occupancy
  Ge          0.69960      0.37570      0.03389  1.0000
  Si          0.64233      0.34346      0.36600  1.0000
  Si          0.70898      0.33400      0.69711  1.0000
  Si          0.33540      0.64312      0.53568  1.0000
  Si          0.37469      0.70289      0.87302  1.0000
  Si          0.33396      0.69298      0.20356  1.0000
  Ge          0.40258      0.73356      0.30165  1.0000
  Ge          0.33821      0.61396      0.96848  1.0000
  Ge          0.31577      0.69848      0.63884  1.0000
  Ge          0.64447      0.31151      0.79631  1.0000
  Ge          0.70268      0.39998      0.46875  1.0000
  Ge          0.72250      0.33116      0.13294  1.0000
  Si          0.52972      0.41497      0.96572  1.0000
  Ge          0.59189      0.11876      0.30233  1.0000
  Ge          0.93055      0.49731      0.62999  1.0000
  Ge          0.50342      0.58918      0.46741  1.0000
  Ge          0.44054      0.92950      0.80989  1.0000
  Ge          0.11428      0.52521      0.13901  1.0000
  Si          0.43142      0.55706      0.36814  1.0000
  Si          0.12024      0.57536      0.03464  1.0000
  Si          0.48874      0.91518      0.70565  1.0000
  Ge          0.58219      0.47717      0.86048  1.0000
  Si          0.91272      0.42948      0.53086  1.0000
  Si          0.54475      0.11324      0.19777  1.0000
  Ge          0.29113      0.41769      0.85662  1.0000
  Si          0.61593      0.89793      0.19117  1.0000
  Ge          0.12547      0.71957      0.52104  1.0000
  Ge          0.72069      0.62921      0.35669  1.0000
  Si          0.42098      0.13095      0.69301  1.0000
  Si          0.90237      0.28992      0.02403  1.0000
  Si          0.41971      0.31597      0.48881  1.0000
  Si          0.90272      0.60281      0.15751  1.0000
  Si          0.73133      0.13332      0.82393  1.0000
  Si          0.61075      0.70005      0.98726  1.0000
  Si          0.11702      0.41412      0.65740  1.0000
  Si          0.30636      0.91159      0.32212  1.0000
  Si          0.24516      0.33400      0.95856  1.0000
  Si          0.68332      0.92158      0.29321  1.0000
  Si          0.10595      0.77723      0.62376  1.0000
  Si          0.78335      0.69145      0.45919  1.0000
  Si          0.35826      0.13369      0.79561  1.0000
  Si          0.91233      0.23813      0.12645  1.0000
  Si          0.36266      0.27863      0.38593  1.0000
  Si          0.91911      0.65700      0.05432  1.0000
  Si          0.76953      0.11700      0.72004  1.0000
  Si          0.65627      0.76002      0.88494  1.0000
  Si          0.11704      0.36107      0.55416  1.0000
  Si          0.26484      0.90761      0.21861  1.0000
  Si          0.97627      0.11156      0.97321  1.0000
  Si          0.91017      0.87616      0.30522  1.0000
  Si          0.17426      0.05632      0.64097  1.0000
  Si          0.06267      0.90677      0.47296  1.0000
  Si          0.11920      0.16644      0.80686  1.0000
  Si          0.86309      0.96520      0.13927  1.0000
  Si          0.14167      0.00172      0.37225  1.0000
  Si          0.86204      0.87226      0.03822  1.0000
  Si          0.04273      0.16630      0.70569  1.0000
  Si          0.88498      0.03513      0.87214  1.0000
  Si          0.17622      0.14125      0.53982  1.0000
  Si          0.99204      0.85901      0.20454  1.0000
  O2          0.93606      0.99148      0.00528  1.0000
  O2          0.02332      0.96261      0.33954  1.0000
  O2          0.08591      0.08918      0.67258  1.0000
  O2          0.09237      0.01876      0.50897  1.0000
  O2          0.00328      0.06746      0.83880  1.0000
  O2          0.95086      0.93316      0.17024  1.0000
  O3          0.35675      0.59739      0.33592  1.0000
  O3          0.44452      0.79481      0.67362  1.0000
  O3          0.23748      0.65021      0.00287  1.0000
  O1          0.67985      0.44906      0.82836  1.0000
  O3          0.58296      0.22687      0.16538  1.0000
  O3          0.79863      0.35395      0.49616  1.0000
  O3          0.58332      0.34108      0.99430  1.0000
  O3          0.78289      0.43570      0.66018  1.0000
  O3          0.67514      0.25985      0.33292  1.0000
  O3          0.45124      0.67321      0.50462  1.0000
  O3          0.25296      0.57862      0.16974  1.0000
  O3          0.34987      0.79514      0.84213  1.0000
  O2          0.12874      0.19776      0.97667  1.0000
  O2          0.81663      0.93478      0.30926  1.0000
  O2          0.11206      0.90527      0.64390  1.0000
  O2          0.91288      0.80826      0.47962  1.0000
  O2          0.22905      0.12968      0.81298  1.0000
  O2          0.92376      0.11672      0.14275  1.0000
  O2          0.23802      0.15302      0.36637  1.0000
  O2          0.93144      0.78837      0.03517  1.0000
  O2          0.89168      0.11178      0.69896  1.0000
  O2          0.77887      0.88810      0.86525  1.0000
  O2          0.12242      0.23846      0.53435  1.0000
  O2          0.14224      0.90800      0.19717  1.0000
  O2          0.96764      0.89092      0.25494  1.0000
  O2          0.16845      0.10023      0.59103  1.0000
  O2          0.93324      0.06021      0.92301  1.0000
  O2          0.06959      0.14217      0.75589  1.0000
  O2          0.86787      0.92254      0.08856  1.0000
  O2          0.09309      0.96881      0.42344  1.0000
  O2          0.91006      0.19436      0.98688  1.0000
  O3          0.83228      0.72857      0.31646  1.0000
  O2          0.32199      0.12624      0.65567  1.0000
  O3          0.13702      0.83144      0.48127  1.0000
  O3          0.17447      0.31260      0.81866  1.0000
  O2          0.71441      0.89399      0.15425  1.0000
  O2          0.21104      0.92261      0.35853  1.0000
  O2          0.71473      0.78592      0.02479  1.0000
  O2          0.12079      0.31654      0.69389  1.0000
  O2          0.82570      0.12420      0.86004  1.0000
  O2          0.32340      0.20849      0.52425  1.0000
  O2          0.91178      0.70780      0.19451  1.0000
  O3          0.32764      0.64009      0.25274  1.0000
  O3          0.37731      0.68899      0.58753  1.0000
  O3          0.33076      0.70724      0.92358  1.0000
  O3          0.71762      0.39513      0.74606  1.0000
  O1          0.63184      0.32024      0.08523  1.0000
  O3          0.68264      0.33163      0.41617  1.0000
  O2          0.37579      0.33668      0.97293  1.0000
  O3          0.68664      0.05040      0.30945  1.0000
  O3          0.97862      0.65954      0.64299  1.0000
  O3          0.66608      0.69849      0.48086  1.0000
  O3          0.35083      0.00476      0.81333  1.0000
  O3          0.03863      0.36104      0.14476  1.0000
  O2          0.34888      0.39982      0.37337  1.0000
  O2          0.04893      0.65964      0.04024  1.0000
  O2          0.64371      0.98651      0.70529  1.0000
  O3          0.66991      0.64454      0.86737  1.0000
  O2          0.98456      0.34612      0.53641  1.0000
  O2          0.38866      0.03554      0.20179  1.0000
  O3          0.77071      0.28623      0.01603  1.0000
  O3          0.72626      0.48964      0.35137  1.0000
  O2          0.55575      0.25723      0.68379  1.0000
  O3          0.26868      0.72306      0.51909  1.0000
  O3          0.28759      0.55835      0.85350  1.0000
  O2          0.48304      0.76520      0.18597  1.0000
  O3          0.30780      0.78485      0.33321  1.0000
  O3          0.48044      0.69439      0.00070  1.0000
  O3          0.24351      0.55039      0.66486  1.0000
  O3          0.73735      0.26587      0.83050  1.0000
  O3          0.55588      0.32675      0.49623  1.0000
  O3          0.77370      0.47316      0.16656  1.0000
  O3          0.79858      0.54066      0.03134  1.0000
  O2          0.48963      0.29079      0.36251  1.0000
  O2          0.76423      0.23482      0.69896  1.0000
  O2          0.23257      0.49071      0.53480  1.0000
  O2          0.52839      0.75514      0.86676  1.0000
  O2          0.26902      0.78368      0.20028  1.0000
  O3          0.56886      0.79766      0.31532  1.0000
  O3          0.23415      0.44729      0.98144  1.0000
  O3          0.23354      0.78039      0.64113  1.0000
  O3          0.47802      0.25826      0.81454  1.0000
  O3          0.78715      0.56406      0.47277  1.0000
  O3          0.78601      0.22889      0.14657  1.0000
  O3          0.22678      0.32694      0.90469  1.0000
  O2          0.68522      0.91075      0.23832  1.0000
  O3          0.10541      0.78809      0.56962  1.0000
  O3          0.79281      0.71214      0.40520  1.0000
  O2          0.35598      0.13462      0.74043  1.0000
  O2          0.91056      0.23112      0.07151  1.0000
  O2          0.36113      0.25678      0.43939  1.0000
  O2          0.90438      0.66318      0.10848  1.0000
  O2          0.78594      0.12351      0.77401  1.0000
  O2          0.66537      0.77216      0.93950  1.0000
  O2          0.11994      0.35297      0.60822  1.0000
  O2          0.24643      0.90690      0.27264  1.0000
  O2          0.59427      0.55835      0.98701  1.0000
  O3          0.44389      0.03848      0.32823  1.0000
  O3          0.99063      0.42086      0.66509  1.0000
  O3          0.42116      0.44558      0.49905  1.0000
  O3          0.58980      0.01384      0.83338  1.0000
  O3          0.02636      0.58705      0.16357  1.0000
  O3          0.57037      0.59708      0.34550  1.0000
  O2          0.01563      0.43433      0.01659  1.0000
  O2          0.43665      0.00659      0.68754  1.0000
  O1          0.43682      0.44513      0.83979  1.0000
  O3          0.00546      0.56826      0.50843  1.0000
  O2          0.59126      0.01368      0.18162  1.0000
  O3          0.59698      0.16470      0.24788  1.0000
  O3          0.85166      0.43619      0.57811  1.0000
  O3          0.56349      0.41147      0.91407  1.0000
  O3          0.43827      0.87159      0.75607  1.0000
  O3          0.16537      0.56639      0.08469  1.0000
  O3          0.44273      0.61626      0.41792  1.0000
  F           0.45926      0.88134      0.26630  1.0000
  F           0.08854      0.56212      0.59629  1.0000
  F           0.41986      0.55762      0.92715  1.0000
  F           0.57802      0.15685      0.76678  1.0000
  F           0.87003      0.42353      0.09683  1.0000
  F           0.56890      0.49998      0.43064  1.0000
