data_cif

_audit_creation_method             'generated by GULP'

_symmetry_space_group_name_H-M     'P 1'
_symmetry_Int_Tables_number        1
_symmetry_cell_setting             triclinic

_cell_length_a                       12.0921
_cell_length_b                       12.1270
_cell_length_c                       29.8242
_cell_angle_alpha                   91.1964
_cell_angle_beta                    89.0170
_cell_angle_gamma                  120.0141

loop_
_atom_site_label
_atom_site_fract_x
_atom_site_fract_y
_atom_site_fract_z
_atom_site_occupancy
  Ge          0.69960      0.37570      0.03389  1.0000
  Ge          0.59116      0.31144      0.36228  1.0000
  Ge          0.66779      0.29939      0.69342  1.0000
  Ge          0.26846      0.60944      0.52963  1.0000
  Si          0.36984      0.67341      0.85631  1.0000
  Ge          0.31441      0.71314      0.19487  1.0000
  Ge          0.34351      0.66793      0.29199  1.0000
  Ge          0.31455      0.61984      0.95925  1.0000
  Si          0.31085      0.68726      0.62657  1.0000
  Si          0.61124      0.30412      0.79648  1.0000
  Si          0.66653      0.35911      0.45929  1.0000
  Ge          0.68144      0.31569      0.13308  1.0000
  Ge          0.53398      0.41984      0.96509  1.0000
  Si          0.54826      0.08604      0.30045  1.0000
  Ge          0.89100      0.46994      0.62665  1.0000
  Ge          0.43850      0.55550      0.46228  1.0000
  Ge          0.41112      0.88732      0.79291  1.0000
  Si          0.10110      0.53771      0.12773  1.0000
  Si          0.38395      0.49816      0.35731  1.0000
  Ge          0.08944      0.57929      0.02430  1.0000
  Ge          0.47330      0.90939      0.69314  1.0000
  Ge          0.56354      0.47675      0.86497  1.0000
  Si          0.88306      0.40900      0.52271  1.0000
  Si          0.50739      0.10209      0.19852  1.0000
  Si          0.29159      0.39220      0.84153  1.0000
  Si          0.58895      0.89941      0.17589  1.0000
  Si          0.08782      0.69537      0.50626  1.0000
  Ge          0.67570      0.58159      0.33896  1.0000
  Si          0.38615      0.09730      0.67264  1.0000
  Si          0.88385      0.28865      0.00824  1.0000
  Si          0.38120      0.27237      0.47245  1.0000
  Si          0.88105      0.60441      0.14041  1.0000
  Si          0.69705      0.10356      0.80628  1.0000
  Si          0.59983      0.70951      0.97318  1.0000
  Si          0.10839      0.40061      0.63719  1.0000
  Si          0.26146      0.87178      0.30745  1.0000
  Si          0.24793      0.33514      0.94389  1.0000
  Si          0.62969      0.88796      0.27808  1.0000
  Si          0.09286      0.75216      0.60889  1.0000
  Si          0.72629      0.63864      0.44225  1.0000
  Si          0.32836      0.08627      0.77556  1.0000
  Si          0.90159      0.25409      0.11105  1.0000
  Si          0.30999      0.21856      0.37051  1.0000
  Si          0.88456      0.66114      0.03828  1.0000
  Si          0.75265      0.09394      0.70402  1.0000
  Si          0.65765      0.75530      0.87096  1.0000
  Si          0.08577      0.32801      0.53485  1.0000
  Si          0.22284      0.90190      0.20626  1.0000
  Si          0.96687      0.11948      0.95658  1.0000
  Si          0.85183      0.83735      0.29010  1.0000
  Si          0.14291      0.02740      0.62346  1.0000
  Si          0.99944      0.85845      0.45823  1.0000
  Si          0.11189      0.15141      0.79002  1.0000
  Si          0.84453      0.98203      0.12479  1.0000
  Si          0.08457      0.94719      0.35779  1.0000
  Si          0.84346      0.88967      0.02363  1.0000
  Si          0.03370      0.15667      0.68875  1.0000
  Si          0.87343      0.03598      0.85561  1.0000
  Si          0.13117      0.10028      0.52252  1.0000
  Si          0.95507      0.85773      0.19044  1.0000
  O2          0.92875      0.00095      0.98894  1.0000
  O2          0.96702      0.90917      0.32504  1.0000
  O2          0.05977      0.06391      0.65663  1.0000
  O2          0.04221      0.97842      0.49170  1.0000
  O2          0.98833      0.06603      0.82084  1.0000
  O2          0.91873      0.93469      0.15608  1.0000
  O3          0.30418      0.54440      0.32844  1.0000
  O3          0.42164      0.76918      0.65967  1.0000
  O1          0.22271      0.66099      0.99099  1.0000
  O3          0.64431      0.41731      0.82888  1.0000
  O3          0.56443      0.23387      0.17319  1.0000
  O2          0.75373      0.33313      0.49353  1.0000
  O1          0.56380      0.33671      0.00233  1.0000
  O1          0.76261      0.42926      0.66066  1.0000
  O3          0.62441      0.20187      0.33244  1.0000
  O1          0.40153      0.64502      0.49476  1.0000
  O3          0.21931      0.58216      0.15815  1.0000
  O3          0.33071      0.75906      0.82877  1.0000
  O2          0.11830      0.20997      0.96135  1.0000
  O2          0.75689      0.89383      0.29790  1.0000
  O2          0.09463      0.87823      0.62921  1.0000
  O2          0.84898      0.76327      0.46458  1.0000
  O2          0.20681      0.09515      0.79514  1.0000
  O2          0.91316      0.13485      0.12979  1.0000
  O2          0.17376      0.09924      0.35506  1.0000
  O2          0.89898      0.79412      0.02157  1.0000
  O2          0.88377      0.10406      0.68564  1.0000
  O2          0.77502      0.88571      0.85143  1.0000
  O2          0.07242      0.19321      0.51837  1.0000
  O2          0.10840      0.92402      0.18907  1.0000
  O2          0.90799      0.86845      0.23986  1.0000
  O2          0.12255      0.05616      0.57324  1.0000
  O2          0.92858      0.07216      0.90555  1.0000
  O2          0.07158      0.14564      0.73894  1.0000
  O2          0.85395      0.94542      0.07350  1.0000
  O2          0.03204      0.90809      0.40788  1.0000
  O2          0.89240      0.19283      0.97151  1.0000
  O3          0.77480      0.68841      0.29807  1.0000
  O2          0.29164      0.10819      0.63676  1.0000
  O2          0.07322      0.78297      0.46940  1.0000
  O2          0.18223      0.29826      0.80608  1.0000
  O2          0.69638      0.91846      0.13874  1.0000
  O2          0.16461      0.87744      0.34469  1.0000
  O2          0.69535      0.81437      0.00974  1.0000
  O2          0.11280      0.30385      0.67358  1.0000
  O2          0.80014      0.11199      0.84307  1.0000
  O2          0.28031      0.17022      0.50828  1.0000
  O2          0.89143      0.70884      0.17750  1.0000
  O1          0.29260      0.60919      0.23962  1.0000
  O3          0.36421      0.69146      0.57687  1.0000
  O3          0.30674      0.65958      0.90483  1.0000
  O3          0.66081      0.35412      0.74597  1.0000
  O1          0.61144      0.30022      0.08302  1.0000
  O3          0.67439      0.30671      0.41099  1.0000
  O3          0.36478      0.32134      0.95831  1.0000
  O2          0.63134      0.01398      0.29646  1.0000
  O3          0.96207      0.63419      0.62565  1.0000
  O3          0.60532      0.64708      0.45717  1.0000
  O3          0.31381      0.95661      0.79357  1.0000
  O2          0.03043      0.38212      0.12442  1.0000
  O2          0.30757      0.34343      0.35330  1.0000
  O3          0.01298      0.66648      0.02008  1.0000
  O3          0.63935      0.96607      0.68357  1.0000
  O3          0.66995      0.64028      0.85060  1.0000
  O2          0.95674      0.32756      0.51843  1.0000
  O2          0.35393      0.02992      0.19200  1.0000
  O3          0.75326      0.28561      0.00061  1.0000
  O1          0.67769      0.44463      0.32751  1.0000
  O3          0.51955      0.22778      0.66808  1.0000
  O3          0.21598      0.69586      0.49568  1.0000
  O2          0.30905      0.53246      0.83344  1.0000
  O3          0.46097      0.77309      0.16306  1.0000
  O3          0.25466      0.73817      0.31235  1.0000
  O3          0.47060      0.71515      0.97652  1.0000
  O2          0.23852      0.53553      0.64188  1.0000
  O2          0.68970      0.23219      0.81072  1.0000
  O2          0.51719      0.27654      0.47693  1.0000
  O3          0.75180      0.47571      0.15084  1.0000
  O3          0.76054      0.54217      0.01865  1.0000
  O3          0.42388      0.20660      0.34934  1.0000
  O3          0.75064      0.21771      0.68659  1.0000
  O3          0.20969      0.44162      0.51366  1.0000
  O2          0.52536      0.74800      0.85563  1.0000
  O3          0.21301      0.77943      0.18290  1.0000
  O3          0.50957      0.76269      0.29666  1.0000
  O3          0.25611      0.45980      0.96761  1.0000
  O2          0.20925      0.74051      0.62864  1.0000
  O2          0.45937      0.20109      0.79510  1.0000
  O2          0.72047      0.51191      0.46184  1.0000
  O3          0.78108      0.25057      0.13486  1.0000
  O2          0.22781      0.33672      0.89032  1.0000
  O2          0.64430      0.88761      0.22382  1.0000
  O2          0.09394      0.76275      0.55487  1.0000
  O3          0.75191      0.65350      0.38910  1.0000
  O2          0.31935      0.08855      0.72162  1.0000
  O2          0.88817      0.23352      0.05727  1.0000
  O2          0.31218      0.21434      0.42505  1.0000
  O2          0.88071      0.66666      0.09307  1.0000
  O2          0.75790      0.09388      0.75861  1.0000
  O2          0.67156      0.76304      0.92532  1.0000
  O2          0.09331      0.32830      0.58952  1.0000
  O2          0.20555      0.88792      0.26051  1.0000
  O3          0.57119      0.57149      0.98594  1.0000
  O2          0.40558      0.98276      0.31741  1.0000
  O3          0.98880      0.41893      0.64859  1.0000
  O3          0.40265      0.40929      0.48410  1.0000
  O3          0.56105      0.98316      0.81680  1.0000
  O2          0.99727      0.57690      0.14532  1.0000
  O3          0.52400      0.56241      0.33433  1.0000
  O3          0.00564      0.42852      0.00048  1.0000
  O3          0.39784      0.97536      0.66061  1.0000
  O3          0.41976      0.39080      0.83220  1.0000
  O2          0.96477      0.55130      0.50279  1.0000
  O2          0.56879      0.02261      0.17478  1.0000
  O2          0.54192      0.13399      0.25054  1.0000
  O3          0.83848      0.40723      0.57357  1.0000
  O1          0.59951      0.42251      0.91351  1.0000
  O1          0.40745      0.82121      0.74215  1.0000
  O3          0.14523      0.58828      0.07734  1.0000
  O3          0.38131      0.53981      0.40818  1.0000
  F           0.39958      0.84724      0.23586  1.0000
  F           0.12359      0.55214      0.56447  1.0000
  F           0.47002      0.53134      0.90169  1.0000
  F           0.52685      0.05939      0.73193  1.0000
  F           0.84878      0.43732      0.06821  1.0000
  F           0.53956      0.41039      0.39652  1.0000
