data_cif

_audit_creation_method             'generated by GULP'

_symmetry_space_group_name_H-M     'P 1'
_symmetry_Int_Tables_number        1
_symmetry_cell_setting             triclinic

_cell_length_a                       12.1352
_cell_length_b                       12.0902
_cell_length_c                       29.8277
_cell_angle_alpha                   88.8549
_cell_angle_beta                    90.4141
_cell_angle_gamma                  120.0851

loop_
_atom_site_label
_atom_site_fract_x
_atom_site_fract_y
_atom_site_fract_z
_atom_site_occupancy
  Ge          0.69960      0.37570      0.03389  1.0000
  Ge          0.63534      0.32215      0.37020  1.0000
  Ge          0.68471      0.28317      0.70422  1.0000
  Ge          0.32586      0.61999      0.53036  1.0000
  Ge          0.39138      0.65399      0.86726  1.0000
  Si          0.33107      0.68553      0.19769  1.0000
  Ge          0.39732      0.71274      0.29460  1.0000
  Si          0.31117      0.62473      0.96436  1.0000
  Ge          0.31506      0.66953      0.62817  1.0000
  Ge          0.64104      0.29891      0.80227  1.0000
  Ge          0.70110      0.36925      0.46827  1.0000
  Si          0.71241      0.32122      0.13626  1.0000
  Si          0.51706      0.41405      0.97251  1.0000
  Si          0.59745      0.10229      0.30788  1.0000
  Ge          0.91386      0.45812      0.64080  1.0000
  Si          0.49267      0.57847      0.46141  1.0000
  Ge          0.44310      0.87560      0.79765  1.0000
  Ge          0.12301      0.52778      0.12905  1.0000
  Ge          0.44585      0.53082      0.35713  1.0000
  Ge          0.09128      0.56650      0.03000  1.0000
  Si          0.49601      0.88625      0.69265  1.0000
  Ge          0.58285      0.46249      0.86922  1.0000
  Si          0.91219      0.41084      0.53666  1.0000
  Ge          0.54562      0.10228      0.20367  1.0000
  Si          0.29683      0.38070      0.84735  1.0000
  Si          0.61635      0.88879      0.18821  1.0000
  Si          0.11942      0.69844      0.51875  1.0000
  Si          0.73225      0.59595      0.34572  1.0000
  Si          0.41621      0.09750      0.68140  1.0000
  Si          0.89504      0.28938      0.01182  1.0000
  Si          0.41523      0.29055      0.47824  1.0000
  Si          0.91584      0.60619      0.14615  1.0000
  Si          0.73014      0.10040      0.81052  1.0000
  Si          0.59289      0.70059      0.97989  1.0000
  Si          0.13677      0.39371      0.65174  1.0000
  Si          0.30813      0.89079      0.31763  1.0000
  Si          0.24188      0.33959      0.95048  1.0000
  Si          0.67825      0.89969      0.29033  1.0000
  Si          0.11356      0.74735      0.62016  1.0000
  Si          0.77369      0.65430      0.44801  1.0000
  Si          0.35781      0.07983      0.78362  1.0000
  Si          0.91757      0.24400      0.11454  1.0000
  Si          0.35663      0.24128      0.37661  1.0000
  Si          0.91197      0.66530      0.04412  1.0000
  Si          0.77842      0.09281      0.70825  1.0000
  Si          0.67147      0.75165      0.87865  1.0000
  Si          0.11756      0.33509      0.54954  1.0000
  Si          0.25972      0.89818      0.21457  1.0000
  Si          0.96730      0.11599      0.96488  1.0000
  Si          0.90311      0.85166      0.29786  1.0000
  Si          0.16564      0.02000      0.63153  1.0000
  Si          0.04360      0.87483      0.46616  1.0000
  Si          0.13336      0.12804      0.79847  1.0000
  Si          0.85648      0.96295      0.13238  1.0000
  Si          0.13522      0.96850      0.36547  1.0000
  Si          0.83933      0.87541      0.03085  1.0000
  Si          0.04934      0.13595      0.69802  1.0000
  Si          0.90011      0.02273      0.86422  1.0000
  Si          0.16529      0.11370      0.53077  1.0000
  Si          0.98516      0.84953      0.19673  1.0000
  O2          0.92482      0.99700      0.99902  1.0000
  O2          0.02220      0.92950      0.33005  1.0000
  O2          0.08736      0.05925      0.66422  1.0000
  O2          0.08410      0.99505      0.49807  1.0000
  O2          0.01952      0.04873      0.83384  1.0000
  O2          0.95152      0.93247      0.16164  1.0000
  O1          0.35873      0.57316      0.32529  1.0000
  O3          0.45106      0.76966      0.66090  1.0000
  O3          0.22603      0.65537      0.99486  1.0000
  O1          0.67058      0.40959      0.84286  1.0000
  O3          0.60021      0.24057      0.17066  1.0000
  O3          0.78831      0.33513      0.50664  1.0000
  O3          0.55824      0.33862      0.00711  1.0000
  O1          0.78599      0.42010      0.67191  1.0000
  O3          0.67176      0.22017      0.33814  1.0000
  O3          0.44594      0.65359      0.49137  1.0000
  O3          0.25393      0.57414      0.16316  1.0000
  O1          0.35656      0.74565      0.82970  1.0000
  O2          0.11692      0.21706      0.97243  1.0000
  O2          0.81360      0.91307      0.30514  1.0000
  O2          0.10010      0.86797      0.63634  1.0000
  O2          0.89083      0.78558      0.46779  1.0000
  O2          0.22817      0.07230      0.80254  1.0000
  O2          0.91019      0.11465      0.13451  1.0000
  O2          0.22180      0.12045      0.36063  1.0000
  O2          0.90041      0.78580      0.02619  1.0000
  O2          0.89930      0.08125      0.69106  1.0000
  O2          0.80837      0.87087      0.86385  1.0000
  O2          0.10240      0.20361      0.52965  1.0000
  O2          0.13603      0.89953      0.19370  1.0000
  O2          0.94889      0.86858      0.24624  1.0000
  O2          0.15818      0.06098      0.58068  1.0000
  O2          0.94563      0.06827      0.91464  1.0000
  O2          0.07686      0.11020      0.74878  1.0000
  O2          0.85147      0.92131      0.08160  1.0000
  O2          0.08318      0.92594      0.41555  1.0000
  O2          0.88553      0.18449      0.97611  1.0000
  O2          0.83022      0.70120      0.30927  1.0000
  O2          0.31377      0.08771      0.64431  1.0000
  O2          0.10778      0.79102      0.48078  1.0000
  O2          0.20531      0.27670      0.81115  1.0000
  O2          0.71304      0.88620      0.15136  1.0000
  O2          0.21610      0.90054      0.35403  1.0000
  O2          0.68994      0.79780      0.01760  1.0000
  O2          0.13015      0.28756      0.68785  1.0000
  O2          0.82889      0.09645      0.84699  1.0000
  O2          0.31239      0.19717      0.51569  1.0000
  O2          0.91011      0.70006      0.18346  1.0000
  O3          0.32192      0.62215      0.24519  1.0000
  O1          0.40268      0.69126      0.57821  1.0000
  O3          0.31602      0.67585      0.91445  1.0000
  O1          0.69496      0.37429      0.75202  1.0000
  O3          0.65330      0.31659      0.08774  1.0000
  O1          0.70406      0.30038      0.41960  1.0000
  O2          0.36282      0.33358      0.97095  1.0000
  O2          0.67977      0.02848      0.30547  1.0000
  O3          0.98522      0.62489      0.63533  1.0000
  O2          0.64691      0.65127      0.46532  1.0000
  O3          0.34900      0.94849      0.79641  1.0000
  O3          0.04848      0.36005      0.13116  1.0000
  O3          0.35050      0.36380      0.36074  1.0000
  O3          0.03690      0.67812      0.02273  1.0000
  O2          0.65193      0.96785      0.69045  1.0000
  O3          0.67733      0.62731      0.86455  1.0000
  O2          0.99416      0.33926      0.53144  1.0000
  O3          0.38184      0.02723      0.19722  1.0000
  O3          0.76418      0.29317      0.00866  1.0000
  O3          0.73782      0.46826      0.34010  1.0000
  O3          0.54343      0.22845      0.67145  1.0000
  O3          0.24345      0.69163      0.50622  1.0000
  O3          0.29792      0.50932      0.83639  1.0000
  O2          0.47968      0.76313      0.17980  1.0000
  O3          0.30082      0.75776      0.32588  1.0000
  O2          0.45911      0.69727      0.98394  1.0000
  O3          0.27022      0.52136      0.65692  1.0000
  O3          0.73521      0.23255      0.81923  1.0000
  O3          0.54630      0.29681      0.49066  1.0000
  O2          0.78734      0.46855      0.15219  1.0000
  O3          0.78615      0.53894      0.02731  1.0000
  O3          0.47105      0.23153      0.35489  1.0000
  O3          0.78929      0.22110      0.68921  1.0000
  O3          0.24358      0.45262      0.52927  1.0000
  O3          0.55995      0.76147      0.85464  1.0000
  O2          0.26650      0.77763      0.19531  1.0000
  O3          0.56322      0.77504      0.31173  1.0000
  O2          0.24841      0.46819      0.96655  1.0000
  O3          0.23797      0.75673      0.64201  1.0000
  O3          0.47619      0.19724      0.80736  1.0000
  O3          0.78214      0.53645      0.46832  1.0000
  O2          0.80291      0.25810      0.13596  1.0000
  O2          0.23418      0.32173      0.89699  1.0000
  O2          0.67995      0.88916      0.23569  1.0000
  O2          0.13009      0.76730      0.56550  1.0000
  O2          0.78565      0.66513      0.39386  1.0000
  O2          0.35567      0.09994      0.72968  1.0000
  O2          0.90603      0.23141      0.06071  1.0000
  O2          0.35610      0.22272      0.43117  1.0000
  O2          0.91703      0.67336      0.09867  1.0000
  O2          0.78797      0.09180      0.76286  1.0000
  O2          0.66614      0.76161      0.93334  1.0000
  O2          0.11881      0.32395      0.60357  1.0000
  O2          0.24975      0.89771      0.26848  1.0000
  O2          0.56991      0.55858      0.98982  1.0000
  O2          0.45266      0.00613      0.32510  1.0000
  O3          0.02404      0.42132      0.66318  1.0000
  O2          0.43277      0.43195      0.47970  1.0000
  O3          0.58949      0.98607      0.82003  1.0000
  O3          0.03566      0.58914      0.15449  1.0000
  O3          0.59221      0.56983      0.33414  1.0000
  O3          0.01516      0.42327      0.99875  1.0000
  O2          0.43920      0.97763      0.67702  1.0000
  O3          0.43692      0.39674      0.84267  1.0000
  O2          0.99496      0.55700      0.51754  1.0000
  O3          0.60602      0.01443      0.18006  1.0000
  O3          0.59274      0.15062      0.25674  1.0000
  O3          0.86697      0.39920      0.58701  1.0000
  O3          0.57490      0.41398      0.92486  1.0000
  O3          0.45689      0.83588      0.74366  1.0000
  O1          0.18428      0.58604      0.07762  1.0000
  O3          0.45620      0.58787      0.41074  1.0000
  F           0.45499      0.85930      0.25907  1.0000
  F           0.16720      0.56974      0.58911  1.0000
  F           0.44601      0.56298      0.90373  1.0000
  F           0.59902      0.13883      0.74221  1.0000
  F           0.94467      0.47247      0.07207  1.0000
  F           0.58696      0.42019      0.40693  1.0000
