data_cif

_audit_creation_method             'generated by GULP'

_symmetry_space_group_name_H-M     'P 1'
_symmetry_Int_Tables_number        1
_symmetry_cell_setting             triclinic

_cell_length_a                       12.1086
_cell_length_b                       12.1112
_cell_length_c                       29.8265
_cell_angle_alpha                   89.8044
_cell_angle_beta                    90.1622
_cell_angle_gamma                  120.0655

loop_
_atom_site_label
_atom_site_fract_x
_atom_site_fract_y
_atom_site_fract_z
_atom_site_occupancy
  Ge          0.69960      0.37570      0.03389  1.0000
  Si          0.62251      0.31620      0.36079  1.0000
  Ge          0.68107      0.29710      0.69971  1.0000
  Ge          0.30387      0.62463      0.54862  1.0000
  Ge          0.38297      0.67843      0.87789  1.0000
  Ge          0.32532      0.69047      0.21285  1.0000
  Si          0.38843      0.69388      0.31652  1.0000
  Ge          0.32250      0.62110      0.97597  1.0000
  Ge          0.30012      0.67704      0.64765  1.0000
  Ge          0.62755      0.29714      0.79785  1.0000
  Ge          0.68283      0.36411      0.46395  1.0000
  Ge          0.70573      0.31857      0.13251  1.0000
  Si          0.53213      0.41636      0.96396  1.0000
  Ge          0.56934      0.09237      0.29750  1.0000
  Si          0.88805      0.46151      0.62957  1.0000
  Ge          0.47047      0.57257      0.48222  1.0000
  Si          0.42374      0.90653      0.81874  1.0000
  Ge          0.09846      0.51451      0.14840  1.0000
  Ge          0.43661      0.51985      0.38177  1.0000
  Si          0.11419      0.57856      0.04530  1.0000
  Si          0.46608      0.88577      0.71670  1.0000
  Ge          0.57602      0.47409      0.85986  1.0000
  Ge          0.91405      0.42010      0.52672  1.0000
  Si          0.52698      0.10609      0.19785  1.0000
  Si          0.28721      0.40799      0.85144  1.0000
  Si          0.60282      0.89278      0.19142  1.0000
  Si          0.12499      0.71336      0.51863  1.0000
  Si          0.70778      0.60444      0.35506  1.0000
  Si          0.39180      0.09294      0.69498  1.0000
  Si          0.90519      0.29354      0.02581  1.0000
  Si          0.40299      0.28163      0.48704  1.0000
  Si          0.88399      0.58978      0.15952  1.0000
  Si          0.71253      0.11569      0.82621  1.0000
  Si          0.60959      0.70117      0.98332  1.0000
  Si          0.09725      0.38674      0.65111  1.0000
  Ge          0.30168      0.89771      0.32501  1.0000
  Si          0.24930      0.33928      0.95364  1.0000
  Si          0.66786      0.91095      0.29354  1.0000
  Si          0.08988      0.74615      0.62104  1.0000
  Si          0.75487      0.65383      0.45782  1.0000
  Si          0.34350      0.10670      0.79690  1.0000
  Si          0.89975      0.23022      0.12729  1.0000
  Si          0.33937      0.24115      0.38464  1.0000
  Si          0.91015      0.65716      0.05718  1.0000
  Si          0.75012      0.08525      0.72435  1.0000
  Si          0.66336      0.76060      0.88169  1.0000
  Si          0.11578      0.33826      0.54940  1.0000
  Si          0.24787      0.90373      0.22185  1.0000
  Si          0.97963      0.11825      0.97361  1.0000
  Si          0.88656      0.84992      0.30597  1.0000
  Si          0.14267      0.01706      0.64029  1.0000
  Si          0.03247      0.87667      0.47291  1.0000
  Si          0.11768      0.15422      0.80530  1.0000
  Si          0.84730      0.95717      0.13941  1.0000
  Si          0.11772      0.96146      0.37323  1.0000
  Si          0.85709      0.87553      0.03827  1.0000
  Si          0.02028      0.13590      0.70462  1.0000
  Si          0.88479      0.03480      0.87312  1.0000
  Si          0.15874      0.10916      0.53880  1.0000
  Si          0.97118      0.84440      0.20574  1.0000
  O2          0.94040      0.99971      0.00728  1.0000
  O2          0.00309      0.93312      0.33918  1.0000
  O2          0.05852      0.05538      0.67156  1.0000
  O2          0.06547      0.98684      0.50936  1.0000
  O2          0.00112      0.07796      0.83903  1.0000
  O2          0.93019      0.91825      0.17049  1.0000
  O3          0.35509      0.57738      0.34701  1.0000
  O3          0.40788      0.75397      0.69116  1.0000
  O3          0.23990      0.65431      0.01638  1.0000
  O1          0.66431      0.43683      0.82721  1.0000
  O3          0.56373      0.21330      0.16142  1.0000
  O1          0.78763      0.33199      0.49252  1.0000
  O3          0.58378      0.34221      0.99328  1.0000
  O3          0.75948      0.40692      0.65711  1.0000
  O3          0.65744      0.24190      0.32680  1.0000
  O1          0.44318      0.65837      0.52073  1.0000
  O1          0.22654      0.55624      0.18228  1.0000
  O3          0.34780      0.78728      0.84924  1.0000
  O2          0.13306      0.20578      0.97328  1.0000
  O2          0.79139      0.90529      0.31094  1.0000
  O2          0.07335      0.86329      0.63986  1.0000
  O2          0.88390      0.77471      0.47827  1.0000
  O2          0.21133      0.09757      0.81337  1.0000
  O2          0.91248      0.10901      0.14336  1.0000
  O2          0.22200      0.10998      0.36562  1.0000
  O2          0.92596      0.79080      0.03824  1.0000
  O2          0.86659      0.06801      0.70527  1.0000
  O2          0.79638      0.88442      0.86572  1.0000
  O2          0.10741      0.20730      0.53276  1.0000
  O2          0.12176      0.89954      0.19959  1.0000
  O2          0.93824      0.86783      0.25545  1.0000
  O2          0.15011      0.06955      0.59064  1.0000
  O2          0.93313      0.06504      0.92403  1.0000
  O2          0.07024      0.13323      0.75413  1.0000
  O2          0.85019      0.91781      0.08832  1.0000
  O2          0.06353      0.93813      0.42378  1.0000
  O2          0.91916      0.20471      0.98807  1.0000
  O2          0.81447      0.70075      0.31901  1.0000
  O2          0.28662      0.07656      0.65802  1.0000
  O2          0.11747      0.81028      0.48277  1.0000
  O2          0.18878      0.30510      0.81519  1.0000
  O2          0.69964      0.89107      0.15409  1.0000
  O3          0.18197      0.87848      0.36308  1.0000
  O2          0.71296      0.79036      0.02075  1.0000
  O2          0.07941      0.28162      0.68863  1.0000
  O2          0.80659      0.10765      0.86317  1.0000
  O2          0.30558      0.17503      0.52321  1.0000
  O2          0.89183      0.69323      0.19565  1.0000
  O3          0.33550      0.64464      0.26579  1.0000
  O1          0.38261      0.69230      0.60051  1.0000
  O1          0.31453      0.69308      0.92837  1.0000
  O1          0.69850      0.38072      0.74694  1.0000
  O1          0.62261      0.30623      0.08194  1.0000
  O3          0.67447      0.31059      0.41076  1.0000
  O2          0.37798      0.34193      0.96948  1.0000
  O3          0.68341      0.04334      0.30859  1.0000
  O2          0.96316      0.61551      0.63541  1.0000
  O3          0.64035      0.66361      0.47824  1.0000
  O2          0.34294      0.98160      0.81650  1.0000
  O3          0.02897      0.35058      0.14471  1.0000
  O3          0.32142      0.35682      0.36996  1.0000
  O2          0.03644      0.65510      0.04131  1.0000
  O2          0.61987      0.95685      0.71075  1.0000
  O3          0.67052      0.64041      0.86490  1.0000
  O3          0.98657      0.32865      0.53119  1.0000
  O2          0.36969      0.02994      0.20180  1.0000
  O3          0.78241      0.30239      0.01256  1.0000
  O2          0.69823      0.46775      0.34763  1.0000
  O3          0.52176      0.21689      0.68087  1.0000
  O3          0.26007      0.72313      0.51631  1.0000
  O3          0.28028      0.53549      0.84743  1.0000
  O3          0.47330      0.75940      0.18693  1.0000
  O3          0.31069      0.76215      0.33425  1.0000
  O3          0.47829      0.69199      0.99751  1.0000
  O3          0.21727      0.51805      0.66648  1.0000
  O3          0.72301      0.25093      0.83034  1.0000
  O3          0.53490      0.28066      0.48968  1.0000
  O3          0.75094      0.46182      0.16371  1.0000
  O3          0.78775      0.54247      0.03437  1.0000
  O2          0.46946      0.25978      0.36265  1.0000
  O3          0.75557      0.20485      0.70004  1.0000
  O3          0.23941      0.45894      0.53081  1.0000
  O3          0.54677      0.77037      0.86145  1.0000
  O3          0.24971      0.77826      0.20544  1.0000
  O2          0.54177      0.79384      0.31561  1.0000
  O3          0.24129      0.45415      0.97585  1.0000
  O3          0.20992      0.75308      0.64559  1.0000
  O3          0.46154      0.23490      0.81443  1.0000
  O3          0.75297      0.52588      0.47415  1.0000
  O3          0.77569      0.22274      0.14752  1.0000
  O2          0.23556      0.33485      0.89964  1.0000
  O2          0.67011      0.90219      0.23907  1.0000
  O2          0.10164      0.76071      0.56733  1.0000
  O2          0.77040      0.66602      0.40378  1.0000
  O2          0.33449      0.10536      0.74217  1.0000
  O2          0.89235      0.22091      0.07248  1.0000
  O2          0.33500      0.22594      0.43911  1.0000
  O2          0.90207      0.66076      0.11103  1.0000
  O2          0.76723      0.09922      0.77809  1.0000
  O2          0.66604      0.77373      0.93645  1.0000
  O2          0.11807      0.33328      0.60444  1.0000
  O3          0.22710      0.90092      0.27456  1.0000
  O2          0.59349      0.56040      0.98352  1.0000
  O1          0.43812      0.03625      0.33493  1.0000
  O2          0.97246      0.40288      0.64997  1.0000
  O3          0.42514      0.41725      0.50129  1.0000
  O2          0.56731      0.00480      0.83658  1.0000
  O3          0.99946      0.56365      0.17088  1.0000
  O3          0.57701      0.60017      0.34704  1.0000
  O2          0.02914      0.43528      0.02539  1.0000
  O2          0.41214      0.97073      0.69339  1.0000
  O3          0.42790      0.43708      0.83878  1.0000
  O3          0.01360      0.57077      0.50574  1.0000
  O2          0.57253      0.00529      0.18164  1.0000
  O3          0.58697      0.16915      0.24528  1.0000
  O3          0.85167      0.42521      0.57847  1.0000
  O3          0.56646      0.41094      0.91312  1.0000
  O2          0.42880      0.85787      0.76847  1.0000
  O3          0.15609      0.57988      0.09602  1.0000
  O1          0.40838      0.57932      0.43160  1.0000
  F           0.46385      0.93223      0.26663  1.0000
  F           0.14963      0.56381      0.58083  1.0000
  F           0.43408      0.57799      0.91339  1.0000
  F           0.56948      0.14808      0.76360  1.0000
  F           0.85830      0.41773      0.09737  1.0000
  F           0.53040      0.46452      0.41738  1.0000
