data_cif

_audit_creation_method             'generated by GULP'

_symmetry_space_group_name_H-M     'P 1'
_symmetry_Int_Tables_number        1
_symmetry_cell_setting             triclinic

_cell_length_a                       12.1218
_cell_length_b                       12.1429
_cell_length_c                       29.9152
_cell_angle_alpha                   89.0073
_cell_angle_beta                    91.2470
_cell_angle_gamma                  120.2343

loop_
_atom_site_label
_atom_site_fract_x
_atom_site_fract_y
_atom_site_fract_z
_atom_site_occupancy
  Ge          0.69960      0.37570      0.03389  1.0000
  Si          0.62542      0.28708      0.36933  1.0000
  Si          0.66831      0.27922      0.69906  1.0000
  Ge          0.29508      0.60107      0.53033  1.0000
  Si          0.38296      0.66959      0.86199  1.0000
  Si          0.31339      0.68738      0.19812  1.0000
  Ge          0.36980      0.68018      0.30074  1.0000
  Ge          0.32770      0.61532      0.96490  1.0000
  Ge          0.27762      0.64465      0.62872  1.0000
  Ge          0.61786      0.27891      0.80128  1.0000
  Ge          0.65786      0.36766      0.46521  1.0000
  Si          0.70392      0.31773      0.13742  1.0000
  Ge          0.52200      0.42050      0.96603  1.0000
  Ge          0.56730      0.06906      0.30286  1.0000
  Ge          0.88747      0.45430      0.63547  1.0000
  Si          0.46922      0.56243      0.46643  1.0000
  Ge          0.42685      0.89049      0.79608  1.0000
  Ge          0.09477      0.51670      0.13073  1.0000
  Ge          0.42043      0.50015      0.36320  1.0000
  Ge          0.11737      0.57935      0.03217  1.0000
  Ge          0.45087      0.86027      0.69554  1.0000
  Ge          0.58556      0.45766      0.86722  1.0000
  Si          0.87458      0.40214      0.53195  1.0000
  Ge          0.53286      0.10337      0.20323  1.0000
  Si          0.29644      0.38335      0.85307  1.0000
  Si          0.60115      0.88739      0.18988  1.0000
  Si          0.09489      0.68860      0.52239  1.0000
  Si          0.70738      0.57213      0.35449  1.0000
  Si          0.38342      0.08072      0.68769  1.0000
  Si          0.89979      0.28928      0.02098  1.0000
  Si          0.38738      0.27768      0.48717  1.0000
  Si          0.90621      0.59900      0.15344  1.0000
  Si          0.70133      0.07867      0.81942  1.0000
  Si          0.61079      0.69590      0.98710  1.0000
  Si          0.09625      0.37411      0.65272  1.0000
  Si          0.29043      0.87916      0.32254  1.0000
  Si          0.24311      0.32421      0.95497  1.0000
  Si          0.66195      0.88582      0.29184  1.0000
  Si          0.09069      0.74246      0.62426  1.0000
  Si          0.75235      0.64622      0.45573  1.0000
  Si          0.32652      0.06984      0.78958  1.0000
  Si          0.90998      0.23756      0.12307  1.0000
  Si          0.34132      0.22000      0.38508  1.0000
  Si          0.91955      0.66195      0.05141  1.0000
  Si          0.73688      0.06566      0.71688  1.0000
  Si          0.66581      0.73861      0.88474  1.0000
  Si          0.07489      0.31953      0.55002  1.0000
  Si          0.24875      0.90191      0.21974  1.0000
  Si          0.96431      0.10970      0.97213  1.0000
  Si          0.87922      0.82131      0.30546  1.0000
  Si          0.13611      0.01531      0.63799  1.0000
  Si          0.02282      0.86808      0.47142  1.0000
  Si          0.11310      0.13572      0.80470  1.0000
  Si          0.84468      0.95616      0.13980  1.0000
  Si          0.11629      0.94530      0.37125  1.0000
  Si          0.85284      0.87625      0.03923  1.0000
  Si          0.01532      0.12524      0.70399  1.0000
  Si          0.88195      0.01811      0.87146  1.0000
  Si          0.13387      0.10534      0.53704  1.0000
  Si          0.96750      0.83763      0.20475  1.0000
  O2          0.93485      0.99931      0.00830  1.0000
  O2          0.99582      0.90876      0.33876  1.0000
  O2          0.05145      0.04233      0.67217  1.0000
  O2          0.06116      0.98491      0.50453  1.0000
  O2          0.00461      0.05737      0.84120  1.0000
  O2          0.93021      0.92473      0.17397  1.0000
  O1          0.33267      0.54222      0.32970  1.0000
  O1          0.41694      0.74387      0.65938  1.0000
  O1          0.23452      0.65784      0.99352  1.0000
  O1          0.66352      0.41547      0.83017  1.0000
  O3          0.58077      0.23143      0.16662  1.0000
  O3          0.75675      0.33041      0.50048  1.0000
  O1          0.57055      0.33623      0.00290  1.0000
  O3          0.74963      0.39702      0.66705  1.0000
  O3          0.65500      0.20489      0.33763  1.0000
  O3          0.41487      0.63782      0.49247  1.0000
  O3          0.23462      0.57506      0.16588  1.0000
  O3          0.34732      0.74879      0.83012  1.0000
  O2          0.11547      0.20219      0.97372  1.0000
  O2          0.78137      0.87232      0.30973  1.0000
  O2          0.08053      0.86404      0.64057  1.0000
  O2          0.86944      0.78403      0.47170  1.0000
  O2          0.20482      0.07628      0.80745  1.0000
  O2          0.89782      0.10671      0.14268  1.0000
  O2          0.21849      0.09425      0.36455  1.0000
  O2          0.91450      0.78703      0.03409  1.0000
  O2          0.86482      0.07192      0.69778  1.0000
  O2          0.78706      0.86727      0.86530  1.0000
  O2          0.06468      0.18879      0.53167  1.0000
  O2          0.11923      0.89519      0.20023  1.0000
  O2          0.93142      0.84158      0.25555  1.0000
  O2          0.12313      0.05735      0.58792  1.0000
  O2          0.92093      0.04996      0.92311  1.0000
  O2          0.05057      0.11493      0.75541  1.0000
  O2          0.85904      0.91790      0.09024  1.0000
  O2          0.07143      0.91999      0.42204  1.0000
  O2          0.89441      0.18802      0.98440  1.0000
  O2          0.81015      0.67116      0.31823  1.0000
  O2          0.28577      0.09114      0.65173  1.0000
  O2          0.08504      0.78299      0.48564  1.0000
  O2          0.19319      0.28613      0.81609  1.0000
  O2          0.69592      0.88080      0.15332  1.0000
  O2          0.18299      0.86435      0.35806  1.0000
  O2          0.70573      0.80227      0.02320  1.0000
  O2          0.09305      0.27229      0.68915  1.0000
  O2          0.81171      0.09405      0.85502  1.0000
  O2          0.28203      0.19044      0.52417  1.0000
  O2          0.89150      0.69133      0.18885  1.0000
  O3          0.30756      0.63307      0.24829  1.0000
  O1          0.36521      0.65502      0.58070  1.0000
  O3          0.33910      0.67507      0.91214  1.0000
  O3          0.68039      0.33039      0.74883  1.0000
  O3          0.65543      0.33130      0.08906  1.0000
  O3          0.67246      0.28452      0.41955  1.0000
  O3          0.35722      0.31089      0.97574  1.0000
  O3          0.67591      0.01151      0.31272  1.0000
  O3          0.96264      0.61811      0.64157  1.0000
  O2          0.62368      0.64390      0.47196  1.0000
  O3          0.31764      0.94378      0.80951  1.0000
  O3          0.03742      0.35206      0.14348  1.0000
  O3          0.32727      0.33592      0.36631  1.0000
  O3          0.05346      0.68088      0.03661  1.0000
  O3          0.62040      0.93592      0.70087  1.0000
  O3          0.68327      0.62388      0.86906  1.0000
  O2          0.94441      0.31634      0.53641  1.0000
  O3          0.36586      0.03432      0.20346  1.0000
  O3          0.76719      0.28542      0.01709  1.0000
  O2          0.70568      0.43878      0.35255  1.0000
  O2          0.51848      0.21351      0.68459  1.0000
  O3          0.22528      0.69171      0.51295  1.0000
  O2          0.30278      0.51867      0.84785  1.0000
  O2          0.46457      0.75917      0.18482  1.0000
  O3          0.29433      0.74911      0.32739  1.0000
  O3          0.47553      0.68781      0.99206  1.0000
  O3          0.22570      0.50251      0.66169  1.0000
  O3          0.69169      0.20416      0.82720  1.0000
  O3          0.51664      0.28076      0.49897  1.0000
  O2          0.78245      0.45786      0.16032  1.0000
  O3          0.81080      0.53640      0.02760  1.0000
  O2          0.47054      0.23268      0.36664  1.0000
  O2          0.72343      0.18252      0.69546  1.0000
  O3          0.19346      0.43667      0.52652  1.0000
  O2          0.53477      0.71753      0.86241  1.0000
  O2          0.26593      0.79094      0.19830  1.0000
  O3          0.53431      0.76002      0.30845  1.0000
  O3          0.24580      0.45078      0.97165  1.0000
  O3          0.21528      0.74797      0.64428  1.0000
  O3          0.45338      0.19662      0.80650  1.0000
  O3          0.76600      0.53507      0.47797  1.0000
  O2          0.78606      0.24486      0.13882  1.0000
  O2          0.23583      0.31594      0.90052  1.0000
  O2          0.66942      0.89204      0.23744  1.0000
  O2          0.09222      0.74981      0.56965  1.0000
  O2          0.76074      0.64703      0.40131  1.0000
  O2          0.31574      0.06705      0.73509  1.0000
  O2          0.91582      0.23271      0.06895  1.0000
  O2          0.32892      0.20904      0.43907  1.0000
  O2          0.90131      0.65937      0.10497  1.0000
  O2          0.75925      0.08049      0.77044  1.0000
  O2          0.67241      0.75543      0.93835  1.0000
  O2          0.09153      0.31476      0.60369  1.0000
  O2          0.23375      0.88951      0.27345  1.0000
  O3          0.60489      0.56470      0.99833  1.0000
  O3          0.42360      0.00099      0.33470  1.0000
  O3          0.97293      0.38961      0.65957  1.0000
  O2          0.40565      0.42049      0.48880  1.0000
  O3          0.57165      0.95082      0.82917  1.0000
  O3          0.03444      0.59828      0.16325  1.0000
  O3          0.56884      0.54910      0.34116  1.0000
  O3          0.01484      0.42845      0.00938  1.0000
  O3          0.40547      0.96828      0.67464  1.0000
  O3          0.43259      0.39985      0.84381  1.0000
  O2          0.98042      0.54464      0.51562  1.0000
  O3          0.58709      0.00879      0.17976  1.0000
  O1          0.59340      0.16292      0.25436  1.0000
  O3          0.83200      0.41057      0.58211  1.0000
  O1          0.58839      0.39492      0.91817  1.0000
  O1          0.39224      0.80192      0.74731  1.0000
  O1          0.18685      0.57845      0.08217  1.0000
  O3          0.42987      0.56314      0.41521  1.0000
  F           0.47219      0.92307      0.26398  1.0000
  F           0.12798      0.55575      0.59353  1.0000
  F           0.46934      0.51432      0.92760  1.0000
  F           0.51856      0.04241      0.76105  1.0000
  F           0.94973      0.46606      0.09257  1.0000
  F           0.56808      0.42085      0.42870  1.0000
