data_cif

_audit_creation_method             'generated by GULP'

_symmetry_space_group_name_H-M     'P 1'
_symmetry_Int_Tables_number        1
_symmetry_cell_setting             triclinic

_cell_length_a                       12.1100
_cell_length_b                       12.1287
_cell_length_c                       29.8853
_cell_angle_alpha                   91.1063
_cell_angle_beta                    89.1461
_cell_angle_gamma                  119.9442

loop_
_atom_site_label
_atom_site_fract_x
_atom_site_fract_y
_atom_site_fract_z
_atom_site_occupancy
  Ge          0.69960      0.37570      0.03389  1.0000
  Ge          0.58635      0.31329      0.36546  1.0000
  Ge          0.66302      0.29446      0.69599  1.0000
  Ge          0.26343      0.60893      0.53398  1.0000
  Ge          0.36773      0.67430      0.86355  1.0000
  Ge          0.30521      0.70576      0.19834  1.0000
  Ge          0.34469      0.67254      0.29625  1.0000
  Si          0.31421      0.61880      0.96588  1.0000
  Si          0.30562      0.68622      0.63091  1.0000
  Si          0.60901      0.30237      0.79899  1.0000
  Ge          0.66304      0.35927      0.46233  1.0000
  Ge          0.67195      0.31290      0.13243  1.0000
  Ge          0.52942      0.41628      0.96583  1.0000
  Si          0.54460      0.09106      0.30203  1.0000
  Ge          0.88727      0.46773      0.63059  1.0000
  Ge          0.43246      0.55350      0.46695  1.0000
  Ge          0.40581      0.88828      0.79799  1.0000
  Si          0.08990      0.52691      0.13278  1.0000
  Si          0.38161      0.49969      0.36264  1.0000
  Ge          0.09029      0.57238      0.02914  1.0000
  Ge          0.46788      0.90663      0.69833  1.0000
  Ge          0.55873      0.47586      0.86543  1.0000
  Si          0.88022      0.40514      0.52693  1.0000
  Ge          0.49704      0.09364      0.19868  1.0000
  Si          0.28517      0.39142      0.84399  1.0000
  Si          0.57929      0.88799      0.17671  1.0000
  Si          0.08009      0.69206      0.50990  1.0000
  Si          0.66952      0.58330      0.34432  1.0000
  Si          0.38134      0.09442      0.67583  1.0000
  Si          0.88135      0.28477      0.01150  1.0000
  Si          0.37523      0.26789      0.47564  1.0000
  Si          0.87419      0.59888      0.14147  1.0000
  Si          0.69401      0.10190      0.80999  1.0000
  Si          0.59849      0.70489      0.97584  1.0000
  Si          0.10501      0.39923      0.64146  1.0000
  Si          0.25964      0.87419      0.31037  1.0000
  Si          0.24483      0.33686      0.94648  1.0000
  Si          0.62757      0.89270      0.27940  1.0000
  Si          0.08657      0.74944      0.61252  1.0000
  Si          0.71959      0.63994      0.44635  1.0000
  Si          0.32591      0.08799      0.77853  1.0000
  Si          0.88890      0.24483      0.11422  1.0000
  Si          0.30478      0.21867      0.37411  1.0000
  Si          0.88893      0.65975      0.03953  1.0000
  Si          0.74771      0.08949      0.70781  1.0000
  Si          0.65800      0.75555      0.87381  1.0000
  Si          0.08468      0.32713      0.53949  1.0000
  Si          0.21066      0.89299      0.20889  1.0000
  Si          0.96541      0.11839      0.95997  1.0000
  Si          0.84277      0.83549      0.29480  1.0000
  Si          0.13787      0.02472      0.62669  1.0000
  Si          0.99439      0.85836      0.46077  1.0000
  Si          0.10819      0.15013      0.79298  1.0000
  Si          0.83426      0.97123      0.12746  1.0000
  Si          0.08117      0.94780      0.36043  1.0000
  Si          0.84255      0.88573      0.02608  1.0000
  Si          0.02866      0.15367      0.69211  1.0000
  Si          0.87284      0.03534      0.85910  1.0000
  Si          0.12553      0.09766      0.52597  1.0000
  Si          0.94033      0.84552      0.19418  1.0000
  O2          0.92832      0.99933      0.99215  1.0000
  O2          0.96236      0.90781      0.32777  1.0000
  O2          0.05561      0.06282      0.65944  1.0000
  O2          0.03745      0.97728      0.49453  1.0000
  O2          0.98599      0.06526      0.82398  1.0000
  O2          0.90754      0.92815      0.16112  1.0000
  O3          0.30787      0.54937      0.33252  1.0000
  O3          0.41476      0.76656      0.66464  1.0000
  O3          0.23195      0.65374      0.99872  1.0000
  O3          0.64142      0.41810      0.82992  1.0000
  O1          0.55370      0.23307      0.17052  1.0000
  O3          0.75366      0.32663      0.49848  1.0000
  O1          0.56444      0.33466      0.00160  1.0000
  O1          0.75811      0.42553      0.66399  1.0000
  O3          0.62096      0.20786      0.33353  1.0000
  O1          0.39597      0.64361      0.49925  1.0000
  O3          0.20606      0.56971      0.16408  1.0000
  O1          0.32540      0.76892      0.83585  1.0000
  O2          0.11580      0.21456      0.96541  1.0000
  O2          0.75720      0.90287      0.29920  1.0000
  O2          0.08859      0.87550      0.63276  1.0000
  O2          0.84288      0.76996      0.46497  1.0000
  O2          0.20528      0.09698      0.79844  1.0000
  O2          0.89642      0.12332      0.13300  1.0000
  O2          0.16922      0.10002      0.35740  1.0000
  O2          0.90046      0.79198      0.02293  1.0000
  O2          0.87859      0.09974      0.68929  1.0000
  O2          0.77942      0.88466      0.85567  1.0000
  O2          0.06761      0.19130      0.52279  1.0000
  O2          0.09246      0.91075      0.19355  1.0000
  O2          0.89093      0.84693      0.24405  1.0000
  O2          0.11709      0.05140      0.57632  1.0000
  O2          0.92999      0.07342      0.90876  1.0000
  O2          0.06661      0.14093      0.74198  1.0000
  O2          0.85228      0.93774      0.07654  1.0000
  O2          0.03162      0.90849      0.41062  1.0000
  O2          0.88761      0.18770      0.97501  1.0000
  O2          0.75750      0.68737      0.30714  1.0000
  O2          0.28651      0.10440      0.63983  1.0000
  O2          0.06248      0.77801      0.47301  1.0000
  O2          0.17628      0.29671      0.80869  1.0000
  O2          0.68477      0.89981      0.13975  1.0000
  O2          0.16276      0.87995      0.34732  1.0000
  O2          0.69409      0.81082      0.01213  1.0000
  O2          0.10745      0.30155      0.67789  1.0000
  O2          0.79670      0.10877      0.84667  1.0000
  O2          0.27345      0.16878      0.51175  1.0000
  O2          0.87736      0.69916      0.17874  1.0000
  O1          0.29166      0.61082      0.24448  1.0000
  O3          0.35886      0.69109      0.58124  1.0000
  O3          0.30394      0.66073      0.91643  1.0000
  O3          0.65549      0.34946      0.74824  1.0000
  O1          0.60710      0.29756      0.08135  1.0000
  O1          0.67580      0.30662      0.41073  1.0000
  O3          0.36044      0.32248      0.96181  1.0000
  O2          0.62945      0.02086      0.29503  1.0000
  O3          0.95687      0.63182      0.62974  1.0000
  O3          0.59880      0.64876      0.46067  1.0000
  O3          0.30850      0.95697      0.79571  1.0000
  O2          0.01890      0.37151      0.12809  1.0000
  O2          0.30602      0.34569      0.35699  1.0000
  O3          0.01616      0.66134      0.02171  1.0000
  O3          0.63337      0.96153      0.68811  1.0000
  O3          0.66845      0.63950      0.85320  1.0000
  O2          0.95666      0.32683      0.52304  1.0000
  O3          0.33386      0.01801      0.19088  1.0000
  O3          0.75502      0.28701      0.00122  1.0000
  O3          0.66740      0.45407      0.33221  1.0000
  O3          0.51613      0.22247      0.66987  1.0000
  O3          0.20917      0.69402      0.49979  1.0000
  O3          0.29406      0.52664      0.83720  1.0000
  O3          0.44931      0.76103      0.16593  1.0000
  O3          0.25471      0.74142      0.31588  1.0000
  O2          0.46310      0.70171      0.98009  1.0000
  O2          0.23423      0.53446      0.64620  1.0000
  O2          0.68864      0.23206      0.81379  1.0000
  O3          0.50397      0.26343      0.48084  1.0000
  O3          0.74126      0.47337      0.14907  1.0000
  O3          0.76427      0.54231      0.01970  1.0000
  O3          0.41913      0.20770      0.35296  1.0000
  O3          0.74601      0.21297      0.68978  1.0000
  O3          0.20852      0.44087      0.51851  1.0000
  O3          0.53202      0.75596      0.85746  1.0000
  O3          0.19990      0.76732      0.18747  1.0000
  O3          0.50934      0.77030      0.30035  1.0000
  O2          0.25843      0.46654      0.96869  1.0000
  O2          0.20322      0.73814      0.63205  1.0000
  O2          0.45729      0.19955      0.79904  1.0000
  O3          0.72184      0.52219      0.46879  1.0000
  O3          0.76963      0.24509      0.13702  1.0000
  O2          0.22562      0.33236      0.89295  1.0000
  O2          0.63662      0.88344      0.22540  1.0000
  O2          0.08582      0.75863      0.55853  1.0000
  O2          0.73798      0.64154      0.39217  1.0000
  O2          0.31862      0.09392      0.72475  1.0000
  O2          0.87782      0.22541      0.06043  1.0000
  O2          0.30175      0.21199      0.42852  1.0000
  O2          0.88745      0.66711      0.09416  1.0000
  O2          0.75349      0.09075      0.76234  1.0000
  O2          0.66711      0.76217      0.92832  1.0000
  O2          0.09227      0.32728      0.59405  1.0000
  O2          0.20388      0.88864      0.26345  1.0000
  O3          0.57648      0.56938      0.98745  1.0000
  O2          0.40400      0.98486      0.31982  1.0000
  O3          0.98541      0.41731      0.65259  1.0000
  O3          0.40462      0.40875      0.48729  1.0000
  O3          0.55738      0.98439      0.82097  1.0000
  O2          0.98533      0.56553      0.14977  1.0000
  O2          0.52647      0.56373      0.34293  1.0000
  O3          0.00756      0.42239      0.00539  1.0000
  O3          0.38977      0.97007      0.66556  1.0000
  O3          0.41514      0.39405      0.83307  1.0000
  O2          0.95869      0.54745      0.50617  1.0000
  O3          0.56475      0.01236      0.17265  1.0000
  O3          0.53351      0.13882      0.25330  1.0000
  O3          0.83609      0.40570      0.57769  1.0000
  O1          0.58911      0.41724      0.91359  1.0000
  O1          0.40439      0.82017      0.74770  1.0000
  O3          0.13829      0.58234      0.08313  1.0000
  O3          0.37169      0.53652      0.41322  1.0000
  F           0.39599      0.84998      0.23627  1.0000
  F           0.11888      0.54979      0.56827  1.0000
  F           0.46583      0.53471      0.90201  1.0000
  F           0.52279      0.05791      0.73552  1.0000
  F           0.84593      0.43322      0.07019  1.0000
  F           0.53335      0.40083      0.40484  1.0000
