data_cif

_audit_creation_method             'generated by GULP'

_symmetry_space_group_name_H-M     'P 1'
_symmetry_Int_Tables_number        1
_symmetry_cell_setting             triclinic

_cell_length_a                       12.1006
_cell_length_b                       12.0989
_cell_length_c                       29.8579
_cell_angle_alpha                   89.3300
_cell_angle_beta                    90.2801
_cell_angle_gamma                  119.8128

loop_
_atom_site_label
_atom_site_fract_x
_atom_site_fract_y
_atom_site_fract_z
_atom_site_occupancy
  Ge          0.69960      0.37570      0.03389  1.0000
  Ge          0.61572      0.33552      0.36922  1.0000
  Ge          0.67425      0.29364      0.70006  1.0000
  Ge          0.28593      0.63108      0.54799  1.0000
  Ge          0.37297      0.66616      0.87982  1.0000
  Ge          0.32006      0.69558      0.20987  1.0000
  Si          0.38502      0.71144      0.31251  1.0000
  Si          0.30131      0.61606      0.97757  1.0000
  Si          0.30724      0.69251      0.64631  1.0000
  Si          0.62567      0.30785      0.80217  1.0000
  Si          0.67547      0.38404      0.47184  1.0000
  Si          0.68316      0.31021      0.13695  1.0000
  Si          0.52366      0.41407      0.96847  1.0000
  Ge          0.58305      0.12482      0.30131  1.0000
  Si          0.89002      0.47720      0.63625  1.0000
  Ge          0.45956      0.58948      0.48164  1.0000
  Ge          0.42024      0.88762      0.81507  1.0000
  Ge          0.10088      0.51866      0.14519  1.0000
  Ge          0.42893      0.53689      0.38019  1.0000
  Ge          0.08518      0.56182      0.04509  1.0000
  Ge          0.47322      0.90769      0.71353  1.0000
  Ge          0.57303      0.47941      0.86477  1.0000
  Ge          0.90281      0.43509      0.53291  1.0000
  Ge          0.51436      0.08719      0.20251  1.0000
  Si          0.28386      0.40031      0.85114  1.0000
  Si          0.59856      0.89438      0.18422  1.0000
  Si          0.11096      0.72334      0.51900  1.0000
  Si          0.69975      0.62150      0.35443  1.0000
  Si          0.38873      0.09468      0.68531  1.0000
  Si          0.90070      0.29053      0.01834  1.0000
  Si          0.39359      0.30026      0.48609  1.0000
  Si          0.88448      0.59269      0.15228  1.0000
  Si          0.70847      0.10880      0.81880  1.0000
  Ge          0.59255      0.70074      0.98222  1.0000
  Si          0.10271      0.40511      0.65005  1.0000
  Si          0.29686      0.91223      0.31754  1.0000
  Si          0.24422      0.34021      0.95390  1.0000
  Si          0.66371      0.92268      0.28650  1.0000
  Si          0.09233      0.75697      0.62202  1.0000
  Si          0.74315      0.66794      0.45731  1.0000
  Si          0.34226      0.09266      0.78829  1.0000
  Si          0.89944      0.24055      0.12131  1.0000
  Si          0.32711      0.25605      0.38403  1.0000
  Si          0.90631      0.66347      0.05027  1.0000
  Si          0.75298      0.08471      0.71713  1.0000
  Si          0.65864      0.76665      0.87927  1.0000
  Si          0.10277      0.34746      0.54804  1.0000
  Si          0.23612      0.90477      0.21558  1.0000
  Si          0.97070      0.11648      0.96764  1.0000
  Si          0.88032      0.85981      0.30131  1.0000
  Si          0.14471      0.03050      0.63479  1.0000
  Si          0.02337      0.88622      0.46802  1.0000
  Si          0.12294      0.15340      0.80078  1.0000
  Si          0.84114      0.96222      0.13462  1.0000
  Si          0.11443      0.97586      0.36746  1.0000
  Si          0.84331      0.88088      0.03406  1.0000
  Si          0.03290      0.15440      0.70045  1.0000
  Si          0.88723      0.03901      0.86623  1.0000
  Si          0.14666      0.11853      0.53381  1.0000
  Si          0.95490      0.83959      0.20059  1.0000
  O2          0.93064      0.99458      0.99942  1.0000
  O2          0.00421      0.94587      0.33125  1.0000
  O2          0.06559      0.07467      0.66552  1.0000
  O2          0.06120      0.00854      0.49875  1.0000
  O2          0.00215      0.06831      0.83250  1.0000
  O2          0.92588      0.92493      0.16612  1.0000
  O3          0.35023      0.60283      0.34699  1.0000
  O3          0.40961      0.76252      0.68276  1.0000
  O3          0.22630      0.64602      0.01291  1.0000
  O3          0.65777      0.42730      0.83243  1.0000
  O3          0.56413      0.22245      0.16562  1.0000
  O3          0.76346      0.35022      0.50189  1.0000
  O3          0.56956      0.33536      0.99867  1.0000
  O3          0.76805      0.42836      0.66729  1.0000
  O1          0.66130      0.24818      0.33788  1.0000
  O1          0.42787      0.67089      0.51918  1.0000
  O1          0.21821      0.55519      0.18400  1.0000
  O1          0.33598      0.77355      0.85275  1.0000
  O2          0.12226      0.21189      0.97340  1.0000
  O2          0.78757      0.91897      0.30565  1.0000
  O2          0.08651      0.87865      0.64186  1.0000
  O2          0.87452      0.78792      0.47596  1.0000
  O2          0.22282      0.10402      0.80778  1.0000
  O2          0.88835      0.11077      0.14193  1.0000
  O2          0.20322      0.12774      0.36659  1.0000
  O2          0.89887      0.78517      0.03162  1.0000
  O2          0.88116      0.08876      0.69961  1.0000
  O2          0.78901      0.88954      0.86100  1.0000
  O2          0.09229      0.21539      0.53146  1.0000
  O2          0.10474      0.89200      0.19678  1.0000
  O2          0.91971      0.86009      0.25022  1.0000
  O2          0.13073      0.05978      0.58330  1.0000
  O2          0.93979      0.07256      0.91653  1.0000
  O2          0.08037      0.14162      0.74940  1.0000
  O2          0.86078      0.93792      0.08355  1.0000
  O2          0.05248      0.92802      0.41625  1.0000
  O2          0.89395      0.18752      0.98200  1.0000
  O2          0.80861      0.71523      0.31890  1.0000
  O2          0.29240      0.10445      0.64904  1.0000
  O2          0.10642      0.82174      0.48271  1.0000
  O2          0.18692      0.30048      0.81480  1.0000
  O2          0.69291      0.87997      0.14865  1.0000
  O2          0.19605      0.90822      0.35465  1.0000
  O3          0.69648      0.80709      0.02212  1.0000
  O2          0.09723      0.30355      0.68744  1.0000
  O2          0.81711      0.12004      0.85417  1.0000
  O2          0.29656      0.19133      0.52144  1.0000
  O2          0.87667      0.68953      0.18839  1.0000
  O3          0.34004      0.65416      0.26275  1.0000
  O3          0.36767      0.70323      0.59785  1.0000
  O3          0.28973      0.66344      0.92848  1.0000
  O3          0.66788      0.35419      0.75143  1.0000
  O3          0.64004      0.31380      0.08568  1.0000
  O3          0.67967      0.34235      0.42160  1.0000
  O2          0.36909      0.32963      0.96589  1.0000
  O3          0.68228      0.05761      0.30001  1.0000
  O2          0.96046      0.63168      0.63651  1.0000
  O3          0.62910      0.68146      0.47559  1.0000
  O3          0.32804      0.96502      0.80742  1.0000
  O3          0.02863      0.35239      0.14088  1.0000
  O3          0.31678      0.37441      0.36606  1.0000
  O3          0.03521      0.67587      0.03293  1.0000
  O3          0.63598      0.95779      0.69938  1.0000
  O3          0.66154      0.64316      0.85993  1.0000
  O3          0.97447      0.34250      0.52937  1.0000
  O3          0.34883      0.02919      0.19281  1.0000
  O3          0.77313      0.29871      0.01042  1.0000
  O3          0.68937      0.48604      0.34533  1.0000
  O3          0.52494      0.22103      0.67597  1.0000
  O3          0.24138      0.72574      0.51291  1.0000
  O3          0.28645      0.53110      0.84432  1.0000
  O3          0.46370      0.76580      0.18079  1.0000
  O2          0.30362      0.78333      0.32352  1.0000
  O3          0.45291      0.69883      0.99132  1.0000
  O2          0.22972      0.53789      0.65908  1.0000
  O2          0.70898      0.24352      0.81908  1.0000
  O2          0.52824      0.30106      0.48837  1.0000
  O2          0.75249      0.45830      0.15403  1.0000
  O3          0.78396      0.53953      0.02994  1.0000
  O3          0.45136      0.25569      0.36482  1.0000
  O3          0.75517      0.21073      0.69723  1.0000
  O3          0.22812      0.46613      0.52956  1.0000
  O3          0.53853      0.77450      0.86214  1.0000
  O3          0.23767      0.77766      0.20156  1.0000
  O2          0.53601      0.81667      0.31110  1.0000
  O2          0.25591      0.46295      0.97790  1.0000
  O2          0.20765      0.74799      0.64435  1.0000
  O2          0.47355      0.21262      0.80653  1.0000
  O2          0.73192      0.53626      0.47644  1.0000
  O2          0.78451      0.25922      0.13901  1.0000
  O2          0.22591      0.33840      0.90032  1.0000
  O2          0.66372      0.90276      0.23310  1.0000
  O2          0.10043      0.77538      0.56831  1.0000
  O2          0.75997      0.67790      0.40350  1.0000
  O2          0.33220      0.10011      0.73432  1.0000
  O2          0.89796      0.22746      0.06741  1.0000
  O2          0.32324      0.24716      0.43859  1.0000
  O2          0.89977      0.66483      0.10480  1.0000
  O2          0.76096      0.08878      0.77165  1.0000
  O3          0.67291      0.77348      0.93340  1.0000
  O2          0.10289      0.34118      0.60291  1.0000
  O2          0.23396      0.91618      0.26992  1.0000
  O3          0.57169      0.55037      0.99106  1.0000
  O3          0.43286      0.03304      0.32615  1.0000
  O2          0.97968      0.42288      0.65549  1.0000
  O3          0.41774      0.43506      0.50053  1.0000
  O3          0.57283      0.00072      0.83428  1.0000
  O3          0.99956      0.57110      0.16579  1.0000
  O3          0.57005      0.62061      0.34577  1.0000
  O3          0.02593      0.42264      0.01022  1.0000
  O3          0.39275      0.96764      0.67809  1.0000
  O3          0.42197      0.41351      0.84281  1.0000
  O3          0.98825      0.58453      0.50914  1.0000
  O3          0.59058      0.01817      0.17129  1.0000
  O1          0.58161      0.18441      0.24963  1.0000
  O3          0.84579      0.42939      0.58624  1.0000
  O3          0.58037      0.43083      0.91866  1.0000
  O1          0.42073      0.82557      0.76413  1.0000
  O1          0.17000      0.58518      0.09536  1.0000
  O1          0.39882      0.59085      0.42993  1.0000
  F           0.46374      0.94468      0.24344  1.0000
  F           0.12937      0.56581      0.57661  1.0000
  F           0.44221      0.57804      0.91073  1.0000
  F           0.53546      0.06425      0.74516  1.0000
  F           0.93278      0.46691      0.07879  1.0000
  F           0.52212      0.47474      0.41298  1.0000
