data_cif

_audit_creation_method             'generated by GULP'

_symmetry_space_group_name_H-M     'P 1'
_symmetry_Int_Tables_number        1
_symmetry_cell_setting             triclinic

_cell_length_a                       12.1178
_cell_length_b                       12.1405
_cell_length_c                       29.9171
_cell_angle_alpha                   91.0970
_cell_angle_beta                    89.1612
_cell_angle_gamma                  119.9124

loop_
_atom_site_label
_atom_site_fract_x
_atom_site_fract_y
_atom_site_fract_z
_atom_site_occupancy
  Ge          0.69960      0.37570      0.03389  1.0000
  Ge          0.58558      0.31195      0.36496  1.0000
  Ge          0.65896      0.29088      0.69609  1.0000
  Ge          0.26277      0.60881      0.53261  1.0000
  Ge          0.36596      0.67357      0.86483  1.0000
  Ge          0.30470      0.70553      0.19795  1.0000
  Ge          0.34397      0.67166      0.29564  1.0000
  Si          0.31377      0.61731      0.96699  1.0000
  Ge          0.30352      0.68855      0.63078  1.0000
  Si          0.60722      0.30323      0.79908  1.0000
  Ge          0.66122      0.35874      0.46181  1.0000
  Ge          0.67112      0.31256      0.13235  1.0000
  Ge          0.52961      0.41623      0.96561  1.0000
  Si          0.54371      0.08960      0.30179  1.0000
  Ge          0.88266      0.46396      0.63034  1.0000
  Ge          0.43126      0.55247      0.46518  1.0000
  Ge          0.40488      0.88928      0.80057  1.0000
  Si          0.08832      0.52583      0.13316  1.0000
  Si          0.38091      0.49732      0.36104  1.0000
  Ge          0.08930      0.57154      0.02962  1.0000
  Ge          0.46890      0.90632      0.70114  1.0000
  Ge          0.55751      0.47714      0.86538  1.0000
  Si          0.87628      0.40206      0.52709  1.0000
  Ge          0.49653      0.09306      0.19852  1.0000
  Si          0.28345      0.39166      0.84454  1.0000
  Si          0.57862      0.88743      0.17662  1.0000
  Si          0.07573      0.68959      0.51008  1.0000
  Si          0.66896      0.58154      0.34342  1.0000
  Si          0.37662      0.08838      0.67673  1.0000
  Si          0.88119      0.28444      0.01177  1.0000
  Si          0.37315      0.26729      0.47479  1.0000
  Si          0.87320      0.59819      0.14171  1.0000
  Si          0.69330      0.10443      0.81158  1.0000
  Si          0.59834      0.70454      0.97611  1.0000
  Si          0.10338      0.39802      0.64168  1.0000
  Si          0.25872      0.87293      0.31003  1.0000
  Si          0.24461      0.33624      0.94695  1.0000
  Si          0.62672      0.89137      0.27923  1.0000
  Si          0.07792      0.74689      0.61234  1.0000
  Si          0.71868      0.63940      0.44538  1.0000
  Si          0.32406      0.08752      0.77950  1.0000
  Si          0.88789      0.24413      0.11441  1.0000
  Si          0.30399      0.21700      0.37323  1.0000
  Si          0.88860      0.65937      0.03984  1.0000
  Si          0.74737      0.08960      0.70960  1.0000
  Si          0.65657      0.75655      0.87414  1.0000
  Si          0.08203      0.32615      0.53987  1.0000
  Si          0.21024      0.89256      0.20863  1.0000
  Si          0.96546      0.11802      0.96040  1.0000
  Si          0.84213      0.83422      0.29465  1.0000
  Si          0.13305      0.02228      0.62664  1.0000
  Si          0.99284      0.85780      0.46066  1.0000
  Si          0.10693      0.15035      0.79360  1.0000
  Si          0.83359      0.97076      0.12758  1.0000
  Si          0.08045      0.94631      0.36029  1.0000
  Si          0.84235      0.88529      0.02636  1.0000
  Si          0.02676      0.15250      0.69282  1.0000
  Si          0.87174      0.03632      0.85974  1.0000
  Si          0.12419      0.09769      0.52574  1.0000
  Si          0.93994      0.84509      0.19414  1.0000
  O2          0.92802      0.99884      0.99248  1.0000
  O2          0.96062      0.90554      0.32809  1.0000
  O2          0.05379      0.06309      0.65962  1.0000
  O2          0.03563      0.97585      0.49486  1.0000
  O2          0.98393      0.06588      0.82426  1.0000
  O2          0.90681      0.92761      0.16120  1.0000
  O3          0.30705      0.54708      0.33113  1.0000
  O1          0.41959      0.76979      0.66729  1.0000
  O3          0.23186      0.65248      0.99981  1.0000
  O3          0.63953      0.42015      0.82928  1.0000
  O1          0.55283      0.23222      0.17030  1.0000
  O3          0.75056      0.32513      0.49821  1.0000
  O1          0.56528      0.33478      0.00116  1.0000
  O1          0.75284      0.42060      0.66353  1.0000
  O3          0.62004      0.20619      0.33330  1.0000
  O1          0.39251      0.64198      0.49646  1.0000
  O3          0.20494      0.56895      0.16417  1.0000
  O1          0.32410      0.77036      0.83835  1.0000
  O2          0.11588      0.21370      0.96579  1.0000
  O2          0.75611      0.90106      0.29900  1.0000
  O2          0.07423      0.87158      0.63126  1.0000
  O2          0.84107      0.77019      0.46387  1.0000
  O2          0.20406      0.09743      0.79947  1.0000
  O2          0.89530      0.12263      0.13316  1.0000
  O2          0.16861      0.09820      0.35667  1.0000
  O2          0.90039      0.79170      0.02335  1.0000
  O2          0.87667      0.09729      0.69118  1.0000
  O2          0.77734      0.88600      0.85608  1.0000
  O2          0.06645      0.19142      0.52243  1.0000
  O2          0.09191      0.90995      0.19325  1.0000
  O2          0.89167      0.84733      0.24407  1.0000
  O2          0.11852      0.05523      0.57639  1.0000
  O2          0.93007      0.07308      0.90923  1.0000
  O2          0.06762      0.14101      0.74240  1.0000
  O2          0.85180      0.93742      0.07672  1.0000
  O2          0.03298      0.90903      0.41076  1.0000
  O2          0.88802      0.18760      0.97540  1.0000
  O2          0.75707      0.68579      0.30638  1.0000
  O2          0.28129      0.09559      0.64043  1.0000
  O2          0.05806      0.77506      0.47304  1.0000
  O2          0.17444      0.29676      0.80939  1.0000
  O2          0.68420      0.89929      0.13978  1.0000
  O2          0.16164      0.87822      0.34697  1.0000
  O2          0.69410      0.81015      0.01235  1.0000
  O2          0.10196      0.29913      0.67837  1.0000
  O2          0.79614      0.11089      0.84812  1.0000
  O2          0.27143      0.16810      0.51078  1.0000
  O2          0.87643      0.69870      0.17883  1.0000
  O1          0.29101      0.61047      0.24393  1.0000
  O1          0.36054      0.69632      0.57773  1.0000
  O3          0.30230      0.65858      0.91765  1.0000
  O3          0.65312      0.34773      0.74817  1.0000
  O1          0.60679      0.29788      0.08125  1.0000
  O1          0.67438      0.30552      0.41044  1.0000
  O3          0.36074      0.32206      0.96169  1.0000
  O2          0.62831      0.01915      0.29502  1.0000
  O3          0.94604      0.62681      0.62684  1.0000
  O3          0.59754      0.64747      0.45969  1.0000
  O3          0.30781      0.95804      0.79768  1.0000
  O2          0.01744      0.37060      0.12855  1.0000
  O2          0.30541      0.34350      0.35553  1.0000
  O3          0.01559      0.66070      0.02197  1.0000
  O3          0.63402      0.96070      0.69077  1.0000
  O3          0.66703      0.64079      0.85336  1.0000
  O2          0.95662      0.32816      0.52188  1.0000
  O3          0.33336      0.01791      0.19098  1.0000
  O3          0.75498      0.28670      0.00143  1.0000
  O3          0.66738      0.45251      0.33170  1.0000
  O3          0.51140      0.21667      0.67048  1.0000
  O3          0.20263      0.68841      0.49872  1.0000
  O3          0.29215      0.52691      0.83793  1.0000
  O3          0.44881      0.76070      0.16570  1.0000
  O3          0.25436      0.74053      0.31557  1.0000
  O2          0.46274      0.70058      0.98087  1.0000
  O3          0.23422      0.52556      0.64638  1.0000
  O2          0.68691      0.23400      0.81503  1.0000
  O3          0.50225      0.26370      0.48028  1.0000
  O3          0.74029      0.47277      0.14910  1.0000
  O3          0.76411      0.54222      0.01995  1.0000
  O3          0.41861      0.20603      0.35247  1.0000
  O3          0.74408      0.21131      0.69053  1.0000
  O3          0.20720      0.44035      0.51980  1.0000
  O3          0.53002      0.75619      0.85808  1.0000
  O3          0.20000      0.76755      0.18693  1.0000
  O3          0.50844      0.76906      0.30004  1.0000
  O2          0.25864      0.46531      0.96979  1.0000
  O3          0.19166      0.74048      0.63509  1.0000
  O2          0.45573      0.20042      0.79912  1.0000
  O3          0.72108      0.52182      0.46783  1.0000
  O3          0.76835      0.24432      0.13691  1.0000
  O2          0.22469      0.33300      0.89355  1.0000
  O2          0.63577      0.88265      0.22527  1.0000
  O2          0.08641      0.75916      0.55826  1.0000
  O2          0.73670      0.64051      0.39127  1.0000
  O2          0.31511      0.08967      0.72568  1.0000
  O2          0.87772      0.22525      0.06065  1.0000
  O2          0.30063      0.21137      0.42760  1.0000
  O2          0.88707      0.66639      0.09441  1.0000
  O2          0.75338      0.09393      0.76410  1.0000
  O2          0.66593      0.76263      0.92860  1.0000
  O2          0.08295      0.32273      0.59429  1.0000
  O2          0.20272      0.88693      0.26313  1.0000
  O3          0.57708      0.56918      0.98729  1.0000
  O2          0.40284      0.98386      0.31935  1.0000
  O3          0.98771      0.42393      0.65299  1.0000
  O3          0.40200      0.40796      0.48616  1.0000
  O3          0.55690      0.98717      0.82278  1.0000
  O2          0.98383      0.56434      0.15027  1.0000
  O2          0.52577      0.56119      0.34149  1.0000
  O3          0.00708      0.42202      0.00564  1.0000
  O3          0.38683      0.96485      0.66736  1.0000
  O3          0.41344      0.39494      0.83337  1.0000
  O2          0.95325      0.54601      0.50798  1.0000
  O3          0.56391      0.01157      0.17252  1.0000
  O3          0.53354      0.13787      0.25307  1.0000
  O3          0.83172      0.39651      0.57800  1.0000
  O1          0.58854      0.41801      0.91324  1.0000
  O1          0.40396      0.82049      0.75062  1.0000
  O3          0.13644      0.58128      0.08360  1.0000
  O3          0.37101      0.53443      0.41148  1.0000
  F           0.39531      0.84933      0.23600  1.0000
  F           0.12171      0.55303      0.57000  1.0000
  F           0.46487      0.53540      0.90224  1.0000
  F           0.52169      0.05752      0.73669  1.0000
  F           0.84553      0.43278      0.07028  1.0000
  F           0.53233      0.39986      0.40396  1.0000
