data_cif

_audit_creation_method             'generated by GULP'

_symmetry_space_group_name_H-M     'P 1'
_symmetry_Int_Tables_number        1
_symmetry_cell_setting             triclinic

_cell_length_a                       12.1128
_cell_length_b                       12.1120
_cell_length_c                       29.8608
_cell_angle_alpha                   89.7587
_cell_angle_beta                    90.0630
_cell_angle_gamma                  119.9398

loop_
_atom_site_label
_atom_site_fract_x
_atom_site_fract_y
_atom_site_fract_z
_atom_site_occupancy
  Ge          0.69960      0.37570      0.03389  1.0000
  Ge          0.62257      0.31778      0.36831  1.0000
  Ge          0.67491      0.30589      0.70247  1.0000
  Ge          0.29629      0.61665      0.52050  1.0000
  Si          0.38233      0.68363      0.85051  1.0000
  Ge          0.31711      0.69079      0.18897  1.0000
  Ge          0.37734      0.69179      0.28681  1.0000
  Ge          0.31955      0.62333      0.95408  1.0000
  Ge          0.29644      0.66818      0.61948  1.0000
  Si          0.61655      0.29638      0.80560  1.0000
  Ge          0.67773      0.37119      0.46633  1.0000
  Ge          0.69451      0.31284      0.13244  1.0000
  Si          0.52093      0.40954      0.96853  1.0000
  Ge          0.57038      0.08893      0.30634  1.0000
  Ge          0.90575      0.47953      0.63927  1.0000
  Ge          0.45855      0.56658      0.44904  1.0000
  Ge          0.43056      0.90678      0.78597  1.0000
  Si          0.10800      0.52399      0.12046  1.0000
  Si          0.41717      0.50382      0.34546  1.0000
  Ge          0.09142      0.57218      0.01750  1.0000
  Ge          0.46395      0.88643      0.68584  1.0000
  Ge          0.56283      0.46638      0.86900  1.0000
  Si          0.88526      0.41484      0.53631  1.0000
  Si          0.52707      0.10469      0.20237  1.0000
  Ge          0.29520      0.39318      0.84176  1.0000
  Si          0.60424      0.89717      0.18274  1.0000
  Si          0.09148      0.70032      0.51632  1.0000
  Si          0.70782      0.58425      0.34008  1.0000
  Si          0.39495      0.10862      0.68007  1.0000
  Si          0.87759      0.28273      0.00679  1.0000
  Si          0.38740      0.28201      0.47193  1.0000
  Si          0.90000      0.60054      0.14040  1.0000
  Si          0.70181      0.09351      0.81205  1.0000
  Si          0.59681      0.69881      0.97522  1.0000
  Si          0.11795      0.39904      0.64794  1.0000
  Si          0.28169      0.86589      0.31421  1.0000
  Si          0.24183      0.33283      0.94489  1.0000
  Si          0.65750      0.88958      0.28429  1.0000
  Si          0.10654      0.76425      0.61802  1.0000
  Si          0.74689      0.65368      0.44201  1.0000
  Si          0.33322      0.08812      0.78243  1.0000
  Si          0.90449      0.24158      0.10901  1.0000
  Si          0.33876      0.22383      0.36944  1.0000
  Si          0.89343      0.65795      0.03901  1.0000
  Si          0.74818      0.08925      0.70944  1.0000
  Si          0.66148      0.74634      0.87318  1.0000
  Si          0.08945      0.33463      0.54541  1.0000
  Si          0.24441      0.89922      0.21213  1.0000
  Si          0.96530      0.11556      0.96084  1.0000
  Si          0.87969      0.83757      0.29328  1.0000
  Si          0.15056      0.03640      0.62827  1.0000
  Si          0.01755      0.87388      0.46166  1.0000
  Si          0.11135      0.14561      0.79368  1.0000
  Si          0.85177      0.97029      0.12809  1.0000
  Si          0.11317      0.95074      0.36076  1.0000
  Si          0.84132      0.87870      0.02706  1.0000
  Si          0.02538      0.14362      0.69407  1.0000
  Si          0.88029      0.02599      0.86077  1.0000
  Si          0.13888      0.11255      0.52639  1.0000
  Si          0.97458      0.85014      0.19276  1.0000
  O2          0.92400      0.00066      0.99607  1.0000
  O2          0.99525      0.91087      0.32768  1.0000
  O2          0.05776      0.06622      0.65758  1.0000
  O2          0.05206      0.99166      0.49480  1.0000
  O2          0.99645      0.05909      0.82751  1.0000
  O2          0.93457      0.92939      0.15935  1.0000
  O3          0.34332      0.54473      0.31289  1.0000
  O1          0.43517      0.77244      0.64776  1.0000
  O1          0.22004      0.65878      0.98405  1.0000
  O3          0.65123      0.40605      0.83930  1.0000
  O3          0.57926      0.23075      0.17316  1.0000
  O3          0.75815      0.33975      0.50815  1.0000
  O3          0.55796      0.33911      0.00488  1.0000
  O1          0.77850      0.44110      0.67291  1.0000
  O1          0.65847      0.21385      0.33905  1.0000
  O1          0.40093      0.64844      0.47720  1.0000
  O3          0.23492      0.57525      0.14861  1.0000
  O3          0.34891      0.76789      0.82068  1.0000
  O2          0.11572      0.21079      0.96701  1.0000
  O2          0.79028      0.89851      0.30033  1.0000
  O2          0.09848      0.88691      0.63479  1.0000
  O2          0.86510      0.78642      0.46048  1.0000
  O2          0.21622      0.10228      0.80148  1.0000
  O2          0.92062      0.12385      0.12789  1.0000
  O2          0.20755      0.10074      0.35251  1.0000
  O2          0.90617      0.79187      0.02292  1.0000
  O2          0.87685      0.09685      0.68908  1.0000
  O2          0.78473      0.87561      0.85582  1.0000
  O2          0.07575      0.20269      0.52605  1.0000
  O2          0.12788      0.91651      0.19288  1.0000
  O2          0.92878      0.85617      0.24250  1.0000
  O2          0.14172      0.06678      0.57638  1.0000
  O2          0.93254      0.05929      0.91118  1.0000
  O2          0.05764      0.11434      0.74314  1.0000
  O2          0.84487      0.92062      0.07818  1.0000
  O2          0.06872      0.92623      0.41221  1.0000
  O2          0.88585      0.18725      0.97079  1.0000
  O2          0.80187      0.68649      0.30319  1.0000
  O2          0.29728      0.11691      0.64384  1.0000
  O2          0.07710      0.78855      0.47840  1.0000
  O3          0.17516      0.29274      0.80387  1.0000
  O2          0.70789      0.91199      0.14546  1.0000
  O2          0.18263      0.86969      0.35028  1.0000
  O2          0.69377      0.79723      0.01247  1.0000
  O2          0.11004      0.29462      0.68384  1.0000
  O2          0.80863      0.10368      0.84795  1.0000
  O2          0.28321      0.18887      0.50860  1.0000
  O2          0.91445      0.70344      0.17813  1.0000
  O1          0.30773      0.61002      0.23635  1.0000
  O1          0.37713      0.68125      0.56818  1.0000
  O3          0.33004      0.67946      0.90125  1.0000
  O3          0.66851      0.35272      0.75554  1.0000
  O1          0.61716      0.30536      0.08453  1.0000
  O1          0.69546      0.30702      0.41863  1.0000
  O2          0.36379      0.32855      0.96476  1.0000
  O3          0.66427      0.01645      0.30141  1.0000
  O3          0.97828      0.64378      0.63609  1.0000
  O3          0.62240      0.65874      0.45507  1.0000
  O3          0.31591      0.95514      0.79765  1.0000
  O2          0.03043      0.36988      0.12497  1.0000
  O2          0.33831      0.34808      0.34956  1.0000
  O3          0.02218      0.66673      0.02132  1.0000
  O3          0.63352      0.96444      0.68949  1.0000
  O3          0.67706      0.62952      0.85821  1.0000
  O2          0.96228      0.33776      0.53098  1.0000
  O2          0.37301      0.02612      0.19698  1.0000
  O3          0.74449      0.27729      0.00282  1.0000
  O3          0.71673      0.45861      0.33563  1.0000
  O3          0.52661      0.24154      0.67722  1.0000
  O3          0.21331      0.69247      0.50188  1.0000
  O3          0.30448      0.53796      0.83257  1.0000
  O3          0.47351      0.77539      0.16815  1.0000
  O3          0.27562      0.73168      0.31807  1.0000
  O3          0.46717      0.70209      0.98007  1.0000
  O3          0.25160      0.52527      0.65142  1.0000
  O2          0.69206      0.22063      0.81921  1.0000
  O3          0.51837      0.28785      0.48468  1.0000
  O3          0.77750      0.46895      0.15369  1.0000
  O3          0.76927      0.54146      0.01899  1.0000
  O3          0.45712      0.21401      0.35219  1.0000
  O3          0.74521      0.21430      0.69258  1.0000
  O3          0.20891      0.44939      0.52147  1.0000
  O2          0.53551      0.73705      0.85100  1.0000
  O3          0.23745      0.77794      0.18904  1.0000
  O3          0.54052      0.76298      0.30406  1.0000
  O3          0.24381      0.45996      0.96155  1.0000
  O3          0.23059      0.76813      0.63660  1.0000
  O2          0.46364      0.20029      0.80377  1.0000
  O3          0.74814      0.53715      0.46678  1.0000
  O3          0.78222      0.23384      0.13179  1.0000
  O3          0.22107      0.31558      0.89223  1.0000
  O2          0.66041      0.88036      0.22954  1.0000
  O2          0.10722      0.77207      0.56313  1.0000
  O2          0.76284      0.65377      0.38818  1.0000
  O2          0.32749      0.09701      0.72798  1.0000
  O2          0.89658      0.23034      0.05522  1.0000
  O2          0.32930      0.21721      0.42403  1.0000
  O2          0.88688      0.66020      0.09378  1.0000
  O2          0.76407      0.09398      0.76341  1.0000
  O2          0.66333      0.75728      0.92759  1.0000
  O2          0.09939      0.33023      0.59913  1.0000
  O2          0.23000      0.88703      0.26602  1.0000
  O2          0.56692      0.55598      0.98469  1.0000
  O3          0.42174      0.97788      0.32697  1.0000
  O3          0.00423      0.42714      0.66013  1.0000
  O3          0.40498      0.42154      0.47573  1.0000
  O3          0.57120      0.96737      0.82040  1.0000
  O2          0.02374      0.58261      0.14070  1.0000
  O2          0.56300      0.55084      0.33020  1.0000
  O3          0.99217      0.42432      0.99503  1.0000
  O3          0.41798      0.99551      0.66625  1.0000
  O1          0.43147      0.39124      0.83175  1.0000
  O2          0.96821      0.55835      0.51619  1.0000
  O2          0.58764      0.02154      0.18268  1.0000
  O3          0.56162      0.14351      0.25318  1.0000
  O3          0.84626      0.41417      0.58711  1.0000
  O3          0.58027      0.40633      0.92105  1.0000
  O1          0.40205      0.81826      0.73645  1.0000
  O3          0.14877      0.56355      0.06972  1.0000
  O3          0.41480      0.55838      0.39462  1.0000
  F           0.42899      0.84405      0.25221  1.0000
  F           0.14339      0.57438      0.58622  1.0000
  F           0.45773      0.52084      0.90001  1.0000
  F           0.52396      0.05514      0.74985  1.0000
  F           0.85236      0.42914      0.06886  1.0000
  F           0.56398      0.40933      0.40297  1.0000
