data_cif

_audit_creation_method             'generated by GULP'

_symmetry_space_group_name_H-M     'P 1'
_symmetry_Int_Tables_number        1
_symmetry_cell_setting             triclinic

_cell_length_a                       12.1461
_cell_length_b                       12.1176
_cell_length_c                       29.7813
_cell_angle_alpha                   89.8767
_cell_angle_beta                    89.5950
_cell_angle_gamma                  120.0145

loop_
_atom_site_label
_atom_site_fract_x
_atom_site_fract_y
_atom_site_fract_z
_atom_site_occupancy
  Ge          0.69960      0.37570      0.03389  1.0000
  Ge          0.61909      0.30889      0.36922  1.0000
  Ge          0.67939      0.27126      0.70395  1.0000
  Ge          0.29398      0.59155      0.53702  1.0000
  Ge          0.38779      0.66044      0.87342  1.0000
  Ge          0.33257      0.70494      0.20651  1.0000
  Si          0.37010      0.66913      0.30384  1.0000
  Si          0.30430      0.62396      0.97100  1.0000
  Ge          0.32673      0.66770      0.63453  1.0000
  Ge          0.64293      0.30757      0.80189  1.0000
  Ge          0.68911      0.34732      0.46781  1.0000
  Si          0.69677      0.31965      0.13674  1.0000
  Si          0.52320      0.41922      0.97279  1.0000
  Si          0.57652      0.09341      0.30441  1.0000
  Ge          0.90365      0.43849      0.63743  1.0000
  Si          0.47040      0.54817      0.47218  1.0000
  Ge          0.44682      0.88411      0.80632  1.0000
  Ge          0.11562      0.53720      0.14016  1.0000
  Ge          0.42289      0.50063      0.36823  1.0000
  Ge          0.08477      0.56738      0.03898  1.0000
  Si          0.49838      0.88107      0.70151  1.0000
  Ge          0.58720      0.47679      0.86885  1.0000
  Si          0.90401      0.38708      0.53298  1.0000
  Ge          0.52272      0.09272      0.19983  1.0000
  Si          0.29952      0.38992      0.84920  1.0000
  Si          0.60309      0.88515      0.18251  1.0000
  Si          0.10706      0.67515      0.51499  1.0000
  Si          0.71057      0.58286      0.34869  1.0000
  Si          0.41039      0.08142      0.68372  1.0000
  Si          0.89993      0.29292      0.01562  1.0000
  Si          0.40288      0.26213      0.48071  1.0000
  Si          0.89380      0.60339      0.14868  1.0000
  Si          0.73404      0.11147      0.81384  1.0000
  Ge          0.59313      0.70668      0.98313  1.0000
  Si          0.12955      0.37919      0.64790  1.0000
  Ge          0.28891      0.87487      0.31354  1.0000
  Si          0.24731      0.34389      0.95237  1.0000
  Si          0.64987      0.88733      0.28548  1.0000
  Si          0.10331      0.72569      0.61732  1.0000
  Si          0.75208      0.63076      0.45178  1.0000
  Si          0.35967      0.08423      0.78629  1.0000
  Si          0.91134      0.25273      0.11885  1.0000
  Si          0.33700      0.21316      0.37857  1.0000
  Si          0.90443      0.66570      0.04636  1.0000
  Si          0.78013      0.08831      0.71168  1.0000
  Si          0.67136      0.76438      0.88005  1.0000
  Si          0.10765      0.31023      0.54584  1.0000
  Si          0.23459      0.89133      0.21028  1.0000
  Si          0.97405      0.11999      0.96671  1.0000
  Si          0.87429      0.83853      0.30039  1.0000
  Si          0.15889      0.99956      0.63362  1.0000
  Si          0.02368      0.84812      0.46742  1.0000
  Si          0.13732      0.13726      0.79992  1.0000
  Si          0.85493      0.97500      0.13337  1.0000
  Si          0.10698      0.94112      0.36643  1.0000
  Si          0.84489      0.88542      0.03298  1.0000
  Si          0.05004      0.12910      0.69876  1.0000
  Si          0.90196      0.03354      0.86530  1.0000
  Si          0.15399      0.08627      0.53279  1.0000
  Si          0.96342      0.84846      0.19880  1.0000
  O2          0.93419      0.99938      0.99882  1.0000
  O2          0.98931      0.91609      0.33467  1.0000
  O2          0.08304      0.04085      0.66778  1.0000
  O2          0.07009      0.96327      0.50241  1.0000
  O2          0.02061      0.05844      0.83408  1.0000
  O2          0.93511      0.93884      0.16711  1.0000
  O3          0.33924      0.55590      0.33794  1.0000
  O3          0.44846      0.75579      0.67178  1.0000
  O3          0.22077      0.65253      0.00322  1.0000
  O1          0.67452      0.42476      0.84014  1.0000
  O3          0.58045      0.23457      0.16926  1.0000
  O3          0.77885      0.31171      0.50352  1.0000
  O3          0.56281      0.33704      0.00365  1.0000
  O1          0.77553      0.40140      0.66846  1.0000
  O3          0.65707      0.21326      0.33379  1.0000
  O3          0.43056      0.62454      0.50367  1.0000
  O1          0.23236      0.56750      0.17619  1.0000
  O1          0.35502      0.75802      0.83824  1.0000
  O2          0.12394      0.21947      0.97336  1.0000
  O2          0.77518      0.89006      0.30571  1.0000
  O2          0.09439      0.84755      0.63599  1.0000
  O2          0.87132      0.76001      0.47198  1.0000
  O2          0.23163      0.08145      0.80493  1.0000
  O2          0.90414      0.12432      0.13912  1.0000
  O2          0.20599      0.09161      0.36164  1.0000
  O2          0.89151      0.78337      0.02747  1.0000
  O2          0.89909      0.07297      0.69439  1.0000
  O2          0.80448      0.88375      0.86208  1.0000
  O2          0.09053      0.17487      0.52903  1.0000
  O2          0.11314      0.90159      0.19292  1.0000
  O2          0.92804      0.86071      0.24989  1.0000
  O2          0.14992      0.04363      0.58380  1.0000
  O2          0.94897      0.07424      0.91578  1.0000
  O2          0.08533      0.11918      0.74970  1.0000
  O2          0.87415      0.94307      0.08288  1.0000
  O2          0.05908      0.90562      0.41762  1.0000
  O2          0.89264      0.18741      0.97987  1.0000
  O2          0.80422      0.68888      0.31214  1.0000
  O2          0.30634      0.06359      0.64655  1.0000
  O2          0.08889      0.76297      0.47770  1.0000
  O2          0.20868      0.28638      0.81241  1.0000
  O2          0.70622      0.89320      0.14604  1.0000
  O3          0.17576      0.86405      0.35271  1.0000
  O3          0.69710      0.81686      0.02262  1.0000
  O2          0.12762      0.27707      0.68418  1.0000
  O2          0.83516      0.11309      0.84986  1.0000
  O2          0.30127      0.16503      0.51760  1.0000
  O2          0.88419      0.69973      0.18480  1.0000
  O3          0.32686      0.61468      0.25465  1.0000
  O1          0.39090      0.67947      0.58272  1.0000
  O3          0.30401      0.67029      0.92044  1.0000
  O1          0.69150      0.37064      0.74972  1.0000
  O3          0.64550      0.31135      0.08658  1.0000
  O1          0.69782      0.29316      0.41617  1.0000
  O2          0.36951      0.33474      0.96813  1.0000
  O2          0.65781      0.01923      0.29892  1.0000
  O3          0.97491      0.60464      0.63195  1.0000
  O2          0.62542      0.63195      0.46655  1.0000
  O3          0.35219      0.95588      0.80120  1.0000
  O3          0.04012      0.36818      0.13495  1.0000
  O3          0.33376      0.33702      0.36128  1.0000
  O3          0.03123      0.67802      0.02675  1.0000
  O2          0.65210      0.96186      0.69478  1.0000
  O3          0.67397      0.64041      0.86190  1.0000
  O2          0.98282      0.31207      0.52757  1.0000
  O3          0.36000      0.01809      0.19194  1.0000
  O3          0.77127      0.29938      0.00839  1.0000
  O3          0.70951      0.45417      0.33780  1.0000
  O3          0.53752      0.20843      0.67109  1.0000
  O3          0.23407      0.67341      0.50341  1.0000
  O3          0.30321      0.52015      0.83966  1.0000
  O3          0.47303      0.75961      0.17270  1.0000
  O3          0.28636      0.73230      0.32025  1.0000
  O3          0.45287      0.70588      0.98811  1.0000
  O3          0.26228      0.50813      0.65300  1.0000
  O3          0.73953      0.24490      0.81894  1.0000
  O3          0.53124      0.25850      0.48744  1.0000
  O2          0.76154      0.46777      0.15196  1.0000
  O3          0.77957      0.53910      0.02880  1.0000
  O3          0.45290      0.20512      0.35726  1.0000
  O3          0.78926      0.21275      0.69082  1.0000
  O3          0.23312      0.42430      0.52517  1.0000
  O3          0.55521      0.77392      0.86019  1.0000
  O3          0.22687      0.76551      0.19114  1.0000
  O2          0.52446      0.76815      0.30705  1.0000
  O2          0.25685      0.47064      0.97224  1.0000
  O3          0.22433      0.72878      0.63968  1.0000
  O3          0.47902      0.20525      0.80798  1.0000
  O3          0.75558      0.51172      0.47282  1.0000
  O2          0.79363      0.26466      0.13961  1.0000
  O2          0.23494      0.33275      0.89844  1.0000
  O2          0.65824      0.87775      0.23163  1.0000
  O2          0.11736      0.74347      0.56296  1.0000
  O2          0.77157      0.64046      0.39771  1.0000
  O2          0.35438      0.09442      0.73191  1.0000
  O2          0.89788      0.23256      0.06499  1.0000
  O2          0.33429      0.20468      0.43332  1.0000
  O2          0.90502      0.67280      0.10110  1.0000
  O2          0.78786      0.09223      0.76624  1.0000
  O3          0.67865      0.77370      0.93441  1.0000
  O2          0.11033      0.30642      0.60047  1.0000
  O3          0.22365      0.89161      0.26464  1.0000
  O3          0.56633      0.55546      0.99502  1.0000
  O3          0.43904      0.99380      0.32573  1.0000
  O3          0.01820      0.40856      0.65930  1.0000
  O2          0.43379      0.40597      0.48925  1.0000
  O3          0.59332      0.00089      0.82608  1.0000
  O3          0.00659      0.58038      0.16116  1.0000
  O3          0.57164      0.56738      0.34343  1.0000
  O3          0.02433      0.42456      0.00578  1.0000
  O2          0.43115      0.95873      0.68230  1.0000
  O3          0.43871      0.40478      0.84432  1.0000
  O2          0.98418      0.53187      0.51317  1.0000
  O3          0.59230      0.01194      0.17666  1.0000
  O3          0.55822      0.13611      0.25464  1.0000
  O3          0.85920      0.37754      0.58375  1.0000
  O3          0.58829      0.43601      0.92432  1.0000
  O3          0.46431      0.83810      0.75257  1.0000
  O1          0.17317      0.59765      0.08791  1.0000
  O3          0.41382      0.53946      0.42259  1.0000
  F           0.41761      0.85378      0.24135  1.0000
  F           0.15427      0.53931      0.57614  1.0000
  F           0.45112      0.57551      0.90810  1.0000
  F           0.59732      0.13344      0.74340  1.0000
  F           0.93286      0.47263      0.07433  1.0000
  F           0.56491      0.39920      0.40725  1.0000
