data_cif

_audit_creation_method             'generated by GULP'

_symmetry_space_group_name_H-M     'P 1'
_symmetry_Int_Tables_number        1
_symmetry_cell_setting             triclinic

_cell_length_a                       12.1254
_cell_length_b                       12.1323
_cell_length_c                       29.8532
_cell_angle_alpha                   88.6082
_cell_angle_beta                    89.9719
_cell_angle_gamma                  120.0112

loop_
_atom_site_label
_atom_site_fract_x
_atom_site_fract_y
_atom_site_fract_z
_atom_site_occupancy
  Si          0.69960      0.37570      0.03389  1.0000
  Ge          0.62329      0.30536      0.37151  1.0000
  Si          0.67598      0.29277      0.70087  1.0000
  Ge          0.27868      0.60528      0.53634  1.0000
  Ge          0.38963      0.68058      0.86781  1.0000
  Si          0.29646      0.66754      0.20407  1.0000
  Ge          0.36736      0.69957      0.30182  1.0000
  Si          0.32660      0.61949      0.97209  1.0000
  Si          0.30875      0.67308      0.63362  1.0000
  Ge          0.61784      0.28872      0.80364  1.0000
  Ge          0.65757      0.36888      0.46907  1.0000
  Ge          0.69164      0.31224      0.13679  1.0000
  Ge          0.52980      0.42494      0.96678  1.0000
  Si          0.57414      0.09088      0.30738  1.0000
  Ge          0.89529      0.46798      0.63497  1.0000
  Si          0.46340      0.57044      0.47352  1.0000
  Ge          0.43013      0.90153      0.80019  1.0000
  Ge          0.08156      0.50840      0.13684  1.0000
  Ge          0.42131      0.52800      0.36884  1.0000
  Ge          0.11420      0.57870      0.03708  1.0000
  Ge          0.46908      0.87820      0.70085  1.0000
  Si          0.59502      0.46962      0.86803  1.0000
  Si          0.87773      0.41046      0.53095  1.0000
  Ge          0.51381      0.08543      0.20335  1.0000
  Si          0.30856      0.39388      0.85509  1.0000
  Si          0.58347      0.86968      0.19199  1.0000
  Ge          0.09567      0.69741      0.51799  1.0000
  Si          0.71028      0.59201      0.35892  1.0000
  Si          0.39354      0.09202      0.68802  1.0000
  Si          0.90164      0.29252      0.02416  1.0000
  Si          0.38460      0.28114      0.48824  1.0000
  Si          0.89088      0.59293      0.15759  1.0000
  Si          0.70381      0.08809      0.82227  1.0000
  Si          0.60596      0.69456      0.98852  1.0000
  Si          0.10420      0.39075      0.64943  1.0000
  Ge          0.28207      0.88470      0.32544  1.0000
  Ge          0.25093      0.33205      0.95804  1.0000
  Si          0.65007      0.88543      0.29398  1.0000
  Si          0.10079      0.75311      0.62120  1.0000
  Si          0.74712      0.64986      0.46083  1.0000
  Si          0.32945      0.07935      0.79016  1.0000
  Si          0.90008      0.22964      0.12608  1.0000
  Si          0.33796      0.23995      0.38637  1.0000
  Si          0.91128      0.65723      0.05470  1.0000
  Si          0.75170      0.08283      0.71940  1.0000
  Si          0.67312      0.74796      0.88604  1.0000
  Si          0.07832      0.32751      0.54817  1.0000
  Si          0.22921      0.88363      0.22155  1.0000
  Si          0.96504      0.11308      0.97469  1.0000
  Si          0.87969      0.84463      0.30690  1.0000
  Si          0.14828      0.02513      0.64004  1.0000
  Si          0.01523      0.87919      0.47218  1.0000
  Si          0.12391      0.15328      0.80524  1.0000
  Si          0.83183      0.94679      0.14085  1.0000
  Si          0.10992      0.96986      0.37329  1.0000
  Si          0.84165      0.87015      0.04009  1.0000
  Si          0.03277      0.14699      0.70441  1.0000
  Si          0.88762      0.02867      0.87340  1.0000
  Si          0.13014      0.10777      0.53925  1.0000
  Si          0.95656      0.83362      0.20583  1.0000
  O2          0.92426      0.99245      0.00801  1.0000
  O2          0.00027      0.93467      0.33660  1.0000
  O2          0.06759      0.05667      0.67583  1.0000
  O2          0.05196      0.98667      0.50900  1.0000
  O2          0.01046      0.07844      0.84131  1.0000
  O2          0.92070      0.91693      0.17265  1.0000
  O1          0.33454      0.56416      0.33505  1.0000
  O3          0.42735      0.75408      0.66537  1.0000
  O3          0.24259      0.66193      0.00011  1.0000
  O3          0.66451      0.42675      0.83248  1.0000
  O1          0.55851      0.21551      0.16881  1.0000
  O3          0.75254      0.32958      0.50481  1.0000
  O3          0.59202      0.34399      0.99968  1.0000
  O3          0.75932      0.41199      0.66876  1.0000
  O3          0.65749      0.21803      0.33421  1.0000
  O3          0.41664      0.64079      0.50504  1.0000
  O3          0.21756      0.55856      0.17092  1.0000
  O1          0.34650      0.76613      0.83622  1.0000
  O3          0.11365      0.20075      0.97969  1.0000
  O2          0.78477      0.90092      0.31001  1.0000
  O2          0.10297      0.87538      0.64414  1.0000
  O2          0.86429      0.78254      0.47884  1.0000
  O2          0.20442      0.08153      0.80729  1.0000
  O2          0.88655      0.09665      0.14405  1.0000
  O2          0.21206      0.11882      0.36607  1.0000
  O2          0.90059      0.77772      0.03520  1.0000
  O2          0.88192      0.09385      0.69983  1.0000
  O2          0.80295      0.87557      0.86891  1.0000
  O2          0.06062      0.19086      0.53414  1.0000
  O2          0.10578      0.88201      0.19907  1.0000
  O2          0.92540      0.85217      0.25599  1.0000
  O2          0.12436      0.06218      0.59087  1.0000
  O2          0.93004      0.06536      0.92405  1.0000
  O2          0.06627      0.14369      0.75615  1.0000
  O2          0.84581      0.91137      0.09062  1.0000
  O2          0.04610      0.94351      0.42258  1.0000
  O2          0.89507      0.19289      0.98695  1.0000
  O2          0.81108      0.69748      0.32279  1.0000
  O2          0.29888      0.10264      0.65163  1.0000
  O3          0.09082      0.80512      0.47951  1.0000
  O2          0.21632      0.30104      0.81596  1.0000
  O2          0.68300      0.86807      0.15537  1.0000
  O3          0.18123      0.89178      0.36548  1.0000
  O2          0.69534      0.79912      0.02459  1.0000
  O2          0.11009      0.29344      0.68668  1.0000
  O2          0.80786      0.09624      0.85830  1.0000
  O2          0.27776      0.18980      0.52538  1.0000
  O2          0.87633      0.68531      0.19305  1.0000
  O3          0.29029      0.61181      0.25359  1.0000
  O3          0.36599      0.67248      0.58623  1.0000
  O3          0.33983      0.67600      0.92240  1.0000
  O3          0.67491      0.34217      0.74992  1.0000
  O3          0.64261      0.32450      0.08393  1.0000
  O1          0.67561      0.28972      0.42277  1.0000
  O1          0.37018      0.31315      0.97982  1.0000
  O2          0.65116      0.01302      0.31009  1.0000
  O3          0.97678      0.63063      0.64218  1.0000
  O2          0.61855      0.64714      0.47662  1.0000
  O3          0.31576      0.95060      0.80948  1.0000
  O3          0.02504      0.34212      0.14678  1.0000
  O3          0.32938      0.36117      0.37259  1.0000
  O3          0.04325      0.67451      0.03695  1.0000
  O3          0.63669      0.95584      0.70077  1.0000
  O2          0.68168      0.62496      0.87051  1.0000
  O2          0.94678      0.32377      0.53641  1.0000
  O3          0.34988      0.01480      0.20466  1.0000
  O2          0.77214      0.29804      0.02036  1.0000
  O3          0.71644      0.46481      0.35216  1.0000
  O2          0.53109      0.22020      0.68271  1.0000
  O1          0.23684      0.70491      0.50668  1.0000
  O3          0.30763      0.52364      0.84983  1.0000
  O2          0.44853      0.74079      0.18788  1.0000
  O1          0.27942      0.74643      0.33635  1.0000
  O2          0.46726      0.68186      0.99437  1.0000
  O2          0.22929      0.52845      0.65587  1.0000
  O3          0.69803      0.21715      0.82695  1.0000
  O3          0.51171      0.28020      0.50043  1.0000
  O3          0.76085      0.45854      0.16203  1.0000
  O2          0.79992      0.52750      0.03446  1.0000
  O3          0.45957      0.24130      0.36485  1.0000
  O2          0.73891      0.20211      0.70046  1.0000
  O3          0.19956      0.43985      0.52384  1.0000
  O3          0.55321      0.74175      0.86269  1.0000
  O2          0.24344      0.76849      0.20236  1.0000
  O3          0.53544      0.76041      0.31529  1.0000
  O3          0.24948      0.46583      0.97649  1.0000
  O2          0.22620      0.74686      0.63663  1.0000
  O3          0.45449      0.20100      0.80953  1.0000
  O3          0.75720      0.53453      0.48215  1.0000
  O3          0.77376      0.23008      0.14257  1.0000
  O3          0.23859      0.31518      0.90017  1.0000
  O2          0.65127      0.88016      0.23940  1.0000
  O3          0.09036      0.76705      0.56853  1.0000
  O2          0.76445      0.65898      0.40646  1.0000
  O2          0.32764      0.08640      0.73568  1.0000
  O2          0.90918      0.22927      0.07154  1.0000
  O2          0.32866      0.21498      0.44053  1.0000
  O2          0.90255      0.66139      0.10848  1.0000
  O2          0.76196      0.08315      0.77333  1.0000
  O2          0.67016      0.75731      0.93970  1.0000
  O2          0.10182      0.32992      0.60213  1.0000
  O3          0.20894      0.88144      0.27450  1.0000
  O3          0.60587      0.56603      0.99889  1.0000
  O3          0.43461      0.01579      0.33047  1.0000
  O3          0.97903      0.39991      0.65778  1.0000
  O2          0.40481      0.42281      0.49061  1.0000
  O3          0.57122      0.96474      0.83373  1.0000
  O3          0.01212      0.58112      0.16936  1.0000
  O3          0.57054      0.56479      0.34838  1.0000
  O3          0.02116      0.42946      0.01335  1.0000
  O3          0.41004      0.97293      0.67856  1.0000
  O2          0.45280      0.42098      0.84774  1.0000
  O3          0.97191      0.54677      0.50708  1.0000
  O3          0.56655      0.98978      0.18078  1.0000
  O3          0.57156      0.13413      0.25607  1.0000
  O3          0.84365      0.43237      0.58185  1.0000
  O3          0.59440      0.40697      0.91553  1.0000
  O1          0.41071      0.81245      0.75222  1.0000
  O1          0.17510      0.57807      0.08783  1.0000
  O3          0.42840      0.58207      0.42245  1.0000
  F           0.42252      0.85139      0.26805  1.0000
  F           0.12692      0.56086      0.57460  1.0000
  F           0.46308      0.51353      0.93073  1.0000
  F           0.52364      0.05106      0.76258  1.0000
  F           0.93638      0.45695      0.09797  1.0000
  F           0.57212      0.42245      0.42848  1.0000
