data_cif

_audit_creation_method             'generated by GULP'

_symmetry_space_group_name_H-M     'P 1'
_symmetry_Int_Tables_number        1
_symmetry_cell_setting             triclinic

_cell_length_a                       12.1419
_cell_length_b                       12.1408
_cell_length_c                       29.8201
_cell_angle_alpha                   89.3278
_cell_angle_beta                    90.6507
_cell_angle_gamma                  120.0782

loop_
_atom_site_label
_atom_site_fract_x
_atom_site_fract_y
_atom_site_fract_z
_atom_site_occupancy
  Ge          0.69960      0.37570      0.03389  1.0000
  Ge          0.66398      0.33415      0.36826  1.0000
  Ge          0.69504      0.31879      0.70006  1.0000
  Ge          0.34611      0.65143      0.53991  1.0000
  Ge          0.38854      0.67546      0.87562  1.0000
  Si          0.33169      0.68204      0.20793  1.0000
  Ge          0.41184      0.72760      0.30454  1.0000
  Si          0.32916      0.63509      0.97373  1.0000
  Ge          0.30463      0.68729      0.63775  1.0000
  Ge          0.63589      0.30111      0.79902  1.0000
  Ge          0.70802      0.40460      0.46606  1.0000
  Ge          0.71881      0.32855      0.13286  1.0000
  Si          0.53106      0.41851      0.96482  1.0000
  Si          0.61784      0.11994      0.30303  1.0000
  Ge          0.91533      0.49073      0.63254  1.0000
  Si          0.51904      0.60806      0.47419  1.0000
  Ge          0.43514      0.90413      0.81189  1.0000
  Ge          0.10636      0.51205      0.14563  1.0000
  Ge          0.46715      0.55734      0.37017  1.0000
  Ge          0.11543      0.57320      0.03983  1.0000
  Si          0.47778      0.89831      0.70678  1.0000
  Ge          0.57825      0.47459      0.85984  1.0000
  Si          0.92997      0.44820      0.52888  1.0000
  Ge          0.55128      0.10323      0.19820  1.0000
  Si          0.28960      0.40688      0.84901  1.0000
  Si          0.61417      0.88067      0.19208  1.0000
  Si          0.14543      0.73460      0.52180  1.0000
  Si          0.75410      0.62253      0.35805  1.0000
  Si          0.40809      0.11486      0.69389  1.0000
  Si          0.89817      0.28581      0.02493  1.0000
  Si          0.43840      0.31948      0.48938  1.0000
  Si          0.89957      0.59732      0.15873  1.0000
  Si          0.72594      0.12127      0.82323  1.0000
  Si          0.60967      0.70197      0.98231  1.0000
  Si          0.12076      0.41013      0.65621  1.0000
  Ge          0.32841      0.91601      0.32329  1.0000
  Ge          0.24922      0.34900      0.95342  1.0000
  Si          0.69286      0.91307      0.29382  1.0000
  Si          0.11593      0.77822      0.62327  1.0000
  Si          0.80043      0.68593      0.46032  1.0000
  Si          0.35273      0.11036      0.79594  1.0000
  Si          0.90273      0.22753      0.12800  1.0000
  Si          0.38177      0.27075      0.38728  1.0000
  Si          0.91581      0.65902      0.05568  1.0000
  Si          0.76160      0.10231      0.72036  1.0000
  Si          0.66958      0.76239      0.88093  1.0000
  Si          0.12752      0.36661      0.55346  1.0000
  Si          0.26551      0.89972      0.21964  1.0000
  Si          0.97649      0.11666      0.97391  1.0000
  Si          0.92249      0.87229      0.30594  1.0000
  Si          0.16291      0.04751      0.63891  1.0000
  Si          0.06908      0.91166      0.47347  1.0000
  Si          0.12370      0.15300      0.80412  1.0000
  Si          0.85578      0.95274      0.13960  1.0000
  Si          0.15650      0.99797      0.37324  1.0000
  Si          0.85358      0.87268      0.03765  1.0000
  Si          0.03324      0.15229      0.70406  1.0000
  Si          0.89477      0.03708      0.87192  1.0000
  Si          0.18427      0.15025      0.53862  1.0000
  Si          0.99145      0.85057      0.20484  1.0000
  O2          0.93556      0.99404      0.00588  1.0000
  O2          0.04376      0.96058      0.33679  1.0000
  O2          0.07347      0.07886      0.66916  1.0000
  O2          0.10951      0.03001      0.50616  1.0000
  O2          0.01153      0.07307      0.83918  1.0000
  O2          0.95188      0.92584      0.16903  1.0000
  O1          0.37837      0.59422      0.33757  1.0000
  O3          0.43159      0.78002      0.67575  1.0000
  O3          0.25182      0.66682      0.00995  1.0000
  O1          0.67016      0.43802      0.83018  1.0000
  O1          0.58475      0.22809      0.16548  1.0000
  O3          0.81597      0.37146      0.49628  1.0000
  O3          0.58523      0.34393      0.99372  1.0000
  O1          0.77424      0.43259      0.65996  1.0000
  O3          0.69898      0.25103      0.32929  1.0000
  O3          0.47279      0.68310      0.50508  1.0000
  O3          0.24409      0.56300      0.17674  1.0000
  O1          0.35125      0.77619      0.84492  1.0000
  O3          0.12480      0.21342      0.97872  1.0000
  O2          0.82955      0.93091      0.30903  1.0000
  O2          0.09602      0.89545      0.63801  1.0000
  O2          0.91775      0.81996      0.47837  1.0000
  O2          0.22104      0.10181      0.81212  1.0000
  O2          0.90885      0.10273      0.14405  1.0000
  O2          0.25266      0.14866      0.36803  1.0000
  O2          0.91963      0.78649      0.03629  1.0000
  O2          0.88114      0.09202      0.70068  1.0000
  O2          0.80276      0.88658      0.86632  1.0000
  O2          0.12132      0.23917      0.53336  1.0000
  O2          0.13929      0.89564      0.19759  1.0000
  O2          0.96682      0.87999      0.25475  1.0000
  O2          0.17140      0.10257      0.58929  1.0000
  O2          0.94414      0.07123      0.92291  1.0000
  O2          0.06954      0.12842      0.75372  1.0000
  O2          0.85594      0.91809      0.08797  1.0000
  O2          0.09939      0.96406      0.42294  1.0000
  O2          0.90186      0.19015      0.98823  1.0000
  O2          0.85124      0.72548      0.32134  1.0000
  O2          0.30607      0.10816      0.65695  1.0000
  O2          0.14086      0.83249      0.48472  1.0000
  O2          0.19157      0.30378      0.81299  1.0000
  O2          0.71011      0.87133      0.15636  1.0000
  O3          0.23167      0.92552      0.36363  1.0000
  O2          0.70707      0.79043      0.02152  1.0000
  O2          0.10535      0.30223      0.69257  1.0000
  O2          0.82402      0.11495      0.85945  1.0000
  O2          0.33326      0.23058      0.52627  1.0000
  O2          0.90805      0.69980      0.19516  1.0000
  O3          0.32816      0.63092      0.25712  1.0000
  O1          0.40463      0.70661      0.59180  1.0000
  O3          0.32667      0.69806      0.92748  1.0000
  O1          0.70981      0.39067      0.74994  1.0000
  O1          0.63039      0.32115      0.08448  1.0000
  O1          0.71529      0.31807      0.41953  1.0000
  O3          0.38110      0.34679      0.97417  1.0000
  O2          0.69485      0.04245      0.30863  1.0000
  O3          0.98903      0.65399      0.63971  1.0000
  O2          0.67331      0.68331      0.47805  1.0000
  O3          0.34800      0.98378      0.81344  1.0000
  O3          0.02508      0.34741      0.15022  1.0000
  O3          0.37200      0.39185      0.37463  1.0000
  O3          0.04772      0.66956      0.04299  1.0000
  O2          0.63384      0.97373      0.70663  1.0000
  O3          0.67513      0.64093      0.86557  1.0000
  O2          0.00175      0.36535      0.53556  1.0000
  O3          0.38485      0.02509      0.20154  1.0000
  O3          0.76659      0.28294      0.01813  1.0000
  O3          0.75917      0.49497      0.35126  1.0000
  O3          0.53574      0.24305      0.68219  1.0000
  O3          0.27891      0.73965      0.51737  1.0000
  O3          0.28205      0.53331      0.84542  1.0000
  O2          0.47863      0.74920      0.18932  1.0000
  O1          0.32817      0.78054      0.33750  1.0000
  O2          0.47433      0.69100      0.99344  1.0000
  O3          0.24654      0.53965      0.66813  1.0000
  O3          0.73177      0.25354      0.83075  1.0000
  O3          0.56811      0.32203      0.50017  1.0000
  O3          0.77109      0.46773      0.16662  1.0000
  O3          0.80200      0.53948      0.03111  1.0000
  O3          0.49988      0.27250      0.36320  1.0000
  O3          0.76523      0.22316      0.69764  1.0000
  O3          0.25271      0.48677      0.53461  1.0000
  O3          0.55293      0.77034      0.85978  1.0000
  O2          0.27057      0.77542      0.20269  1.0000
  O3          0.58068      0.79142      0.31694  1.0000
  O3          0.24705      0.47921      0.97476  1.0000
  O3          0.23907      0.78926      0.64655  1.0000
  O3          0.47043      0.23661      0.81558  1.0000
  O3          0.81195      0.57099      0.47986  1.0000
  O3          0.77511      0.21772      0.14526  1.0000
  O3          0.23338      0.33063      0.89661  1.0000
  O2          0.68636      0.89835      0.23943  1.0000
  O2          0.12757      0.78858      0.56867  1.0000
  O2          0.80967      0.69325      0.40562  1.0000
  O2          0.34668      0.11720      0.74123  1.0000
  O2          0.91386      0.23304      0.07333  1.0000
  O2          0.38092      0.25079      0.44136  1.0000
  O2          0.90055      0.65895      0.10955  1.0000
  O2          0.78092      0.11369      0.77426  1.0000
  O2          0.66875      0.77443      0.93592  1.0000
  O2          0.12853      0.35400      0.60752  1.0000
  O3          0.24880      0.90286      0.27272  1.0000
  O2          0.59688      0.56335      0.98425  1.0000
  O3          0.47984      0.04898      0.32655  1.0000
  O3          0.99653      0.42506      0.65937  1.0000
  O2          0.45698      0.46166      0.49174  1.0000
  O3          0.58698      0.00400      0.83314  1.0000
  O3          0.02167      0.57934      0.16617  1.0000
  O3          0.61258      0.59250      0.34788  1.0000
  O3          0.01132      0.42894      0.01545  1.0000
  O2          0.43175      0.99652      0.68947  1.0000
  O3          0.43151      0.43771      0.83732  1.0000
  O2          0.03590      0.59020      0.51180  1.0000
  O3          0.59228      0.99455      0.17824  1.0000
  O3          0.61353      0.15357      0.25138  1.0000
  O3          0.87673      0.45485      0.57733  1.0000
  O3          0.55914      0.41004      0.91387  1.0000
  O3          0.43356      0.85504      0.75759  1.0000
  O1          0.16094      0.55481      0.09212  1.0000
  O3          0.48094      0.61821      0.42358  1.0000
  F           0.46092      0.87130      0.26732  1.0000
  F           0.16545      0.59631      0.59685  1.0000
  F           0.43624      0.57335      0.91027  1.0000
  F           0.57817      0.15445      0.76399  1.0000
  F           0.86875      0.42034      0.09841  1.0000
  F           0.61993      0.45842      0.42784  1.0000
