data_cif

_audit_creation_method             'generated by GULP'

_symmetry_space_group_name_H-M     'P 1'
_symmetry_Int_Tables_number        1
_symmetry_cell_setting             triclinic

_cell_length_a                       12.1239
_cell_length_b                       12.1141
_cell_length_c                       29.8233
_cell_angle_alpha                   89.6700
_cell_angle_beta                    90.1457
_cell_angle_gamma                  120.1225

loop_
_atom_site_label
_atom_site_fract_x
_atom_site_fract_y
_atom_site_fract_z
_atom_site_occupancy
  Ge          0.69960      0.37570      0.03389  1.0000
  Ge          0.63358      0.32391      0.36658  1.0000
  Ge          0.69683      0.31090      0.70004  1.0000
  Ge          0.32000      0.63284      0.54978  1.0000
  Ge          0.38925      0.68692      0.87910  1.0000
  Ge          0.32711      0.69316      0.21740  1.0000
  Ge          0.38539      0.69589      0.31565  1.0000
  Ge          0.33128      0.63110      0.97750  1.0000
  Ge          0.31630      0.68268      0.64876  1.0000
  Ge          0.63486      0.30629      0.79812  1.0000
  Ge          0.68879      0.37245      0.46548  1.0000
  Ge          0.69999      0.31354      0.13191  1.0000
  Si          0.53509      0.42171      0.96441  1.0000
  Ge          0.57890      0.11102      0.29478  1.0000
  Si          0.90526      0.47279      0.62955  1.0000
  Ge          0.49307      0.57162      0.49005  1.0000
  Si          0.42972      0.91431      0.81913  1.0000
  Ge          0.09778      0.51707      0.15576  1.0000
  Si          0.43140      0.53256      0.38578  1.0000
  Ge          0.11753      0.57766      0.04955  1.0000
  Si          0.47626      0.89151      0.71707  1.0000
  Ge          0.57978      0.48043      0.86024  1.0000
  Ge          0.92412      0.43340      0.52545  1.0000
  Si          0.51244      0.08534      0.19117  1.0000
  Si          0.29171      0.41616      0.85262  1.0000
  Si          0.59197      0.87406      0.18708  1.0000
  Si          0.14549      0.72560      0.51999  1.0000
  Si          0.71557      0.61261      0.36422  1.0000
  Ge          0.40249      0.10269      0.69483  1.0000
  Si          0.90418      0.29033      0.02809  1.0000
  Si          0.42134      0.27968      0.49497  1.0000
  Si          0.87461      0.58216      0.16066  1.0000
  Si          0.71864      0.12285      0.82697  1.0000
  Si          0.61709      0.70735      0.98407  1.0000
  Si          0.10996      0.39287      0.65075  1.0000
  Si          0.29519      0.89671      0.31893  1.0000
  Si          0.25274      0.34772      0.95491  1.0000
  Si          0.66598      0.90978      0.28889  1.0000
  Si          0.10999      0.75712      0.62231  1.0000
  Si          0.77956      0.65633      0.46621  1.0000
  Si          0.34936      0.11537      0.79775  1.0000
  Si          0.89764      0.23169      0.13016  1.0000
  Si          0.35223      0.24809      0.39254  1.0000
  Si          0.90954      0.65630      0.05840  1.0000
  Si          0.75981      0.09407      0.72529  1.0000
  Si          0.66911      0.76738      0.88242  1.0000
  Si          0.12706      0.34911      0.54864  1.0000
  Si          0.23302      0.88301      0.21632  1.0000
  Si          0.98314      0.12120      0.97465  1.0000
  Si          0.88685      0.85965      0.30785  1.0000
  Si          0.14972      0.02507      0.64024  1.0000
  Si          0.05247      0.88634      0.47305  1.0000
  Si          0.12447      0.16265      0.80659  1.0000
  Si          0.84510      0.95728      0.13991  1.0000
  Si          0.12686      0.97855      0.37199  1.0000
  Si          0.86339      0.87995      0.03922  1.0000
  Si          0.02923      0.14183      0.70551  1.0000
  Si          0.89023      0.04170      0.87381  1.0000
  Si          0.16554      0.11699      0.53964  1.0000
  Si          0.95930      0.83569      0.20685  1.0000
  O2          0.94954      0.00104      0.00709  1.0000
  O2          0.00892      0.94708      0.33900  1.0000
  O2          0.06400      0.05706      0.67346  1.0000
  O2          0.08478      0.00500      0.50469  1.0000
  O2          0.00574      0.08506      0.83941  1.0000
  O2          0.92055      0.91496      0.17363  1.0000
  O3          0.35615      0.58699      0.35843  1.0000
  O3          0.42190      0.75749      0.69290  1.0000
  O1          0.25371      0.66221      0.01920  1.0000
  O1          0.66949      0.44516      0.82765  1.0000
  O3          0.55250      0.19858      0.15782  1.0000
  O1          0.79902      0.34094      0.49302  1.0000
  O3          0.58552      0.34490      0.99294  1.0000
  O3          0.77945      0.42267      0.65840  1.0000
  O1          0.66220      0.25145      0.32253  1.0000
  O1          0.46180      0.66453      0.52252  1.0000
  O1          0.21853      0.54991      0.19060  1.0000
  O3          0.35391      0.79495      0.84968  1.0000
  O2          0.13573      0.21484      0.97479  1.0000
  O2          0.79970      0.92490      0.30684  1.0000
  O2          0.09314      0.87227      0.64235  1.0000
  O2          0.90564      0.78571      0.48277  1.0000
  O2          0.21922      0.10825      0.81604  1.0000
  O2          0.90513      0.10750      0.14720  1.0000
  O2          0.21936      0.13146      0.37284  1.0000
  O2          0.92716      0.79160      0.04062  1.0000
  O2          0.87606      0.07645      0.70669  1.0000
  O2          0.80168      0.89152      0.86613  1.0000
  O2          0.12086      0.21930      0.53129  1.0000
  O2          0.10933      0.89020      0.19917  1.0000
  O2          0.93397      0.85547      0.25813  1.0000
  O2          0.13401      0.06382      0.59005  1.0000
  O2          0.93960      0.07158      0.92455  1.0000
  O2          0.08014      0.14197      0.75509  1.0000
  O2          0.86258      0.92851      0.08892  1.0000
  O2          0.07312      0.92927      0.42138  1.0000
  O2          0.91316      0.19672      0.99100  1.0000
  O2          0.80375      0.71654      0.32660  1.0000
  O3          0.29538      0.09613      0.65399  1.0000
  O2          0.14182      0.82613      0.48434  1.0000
  O2          0.19293      0.31352      0.81648  1.0000
  O2          0.69406      0.88184      0.15032  1.0000
  O2          0.20314      0.90952      0.35557  1.0000
  O2          0.71915      0.79649      0.02183  1.0000
  O2          0.09121      0.28664      0.68797  1.0000
  O2          0.81185      0.11481      0.86423  1.0000
  O2          0.31683      0.17952      0.53064  1.0000
  O2          0.87728      0.68503      0.19639  1.0000
  O1          0.32134      0.61239      0.26819  1.0000
  O1          0.39967      0.69871      0.60160  1.0000
  O1          0.32280      0.70313      0.92968  1.0000
  O1          0.71170      0.39070      0.74825  1.0000
  O1          0.61921      0.30059      0.08112  1.0000
  O1          0.70101      0.30647      0.41381  1.0000
  O2          0.38133      0.35011      0.97083  1.0000
  O3          0.67289      0.04105      0.30028  1.0000
  O2          0.98293      0.62643      0.63578  1.0000
  O3          0.66027      0.66071      0.48565  1.0000
  O2          0.35027      0.99049      0.81709  1.0000
  O3          0.02671      0.35172      0.14619  1.0000
  O2          0.35475      0.37865      0.37902  1.0000
  O3          0.03222      0.65562      0.04033  1.0000
  O2          0.63041      0.96483      0.71217  1.0000
  O3          0.67475      0.64691      0.86529  1.0000
  O3          0.00215      0.34459      0.53013  1.0000
  O2          0.35652      0.00664      0.19534  1.0000
  O3          0.78667      0.30700      0.01292  1.0000
  O3          0.70799      0.48356      0.34887  1.0000
  O1          0.54137      0.23581      0.67999  1.0000
  O3          0.28046      0.73399      0.51737  1.0000
  O3          0.28580      0.54419      0.84875  1.0000
  O3          0.46540      0.73950      0.18319  1.0000
  O3          0.30041      0.77165      0.33242  1.0000
  O3          0.48719      0.69949      0.99844  1.0000
  O3          0.23129      0.52282      0.66656  1.0000
  O3          0.72714      0.25737      0.83047  1.0000
  O3          0.54770      0.27094      0.49760  1.0000
  O3          0.73842      0.45518      0.16261  1.0000
  O3          0.78418      0.54216      0.03650  1.0000
  O3          0.46621      0.24364      0.36814  1.0000
  O3          0.76600      0.21368      0.70080  1.0000
  O3          0.25606      0.46866      0.53125  1.0000
  O3          0.55296      0.77868      0.86269  1.0000
  O3          0.22191      0.75341      0.20028  1.0000
  O3          0.55105      0.79496      0.31545  1.0000
  O3          0.24593      0.46332      0.97679  1.0000
  O3          0.22927      0.76218      0.64665  1.0000
  O3          0.46904      0.24425      0.81430  1.0000
  O3          0.78974      0.53693      0.48327  1.0000
  O3          0.77256      0.22415      0.15038  1.0000
  O2          0.23967      0.34292      0.90088  1.0000
  O2          0.66177      0.88814      0.23528  1.0000
  O2          0.12439      0.77497      0.56854  1.0000
  O2          0.78735      0.66645      0.41124  1.0000
  O3          0.33176      0.11039      0.74370  1.0000
  O2          0.88357      0.21691      0.07545  1.0000
  O2          0.34986      0.23114      0.44633  1.0000
  O2          0.90442      0.65783      0.11270  1.0000
  O2          0.77491      0.10871      0.77904  1.0000
  O2          0.67426      0.78019      0.93720  1.0000
  O2          0.12982      0.34059      0.60370  1.0000
  O2          0.22913      0.88928      0.27100  1.0000
  O2          0.59999      0.56605      0.98391  1.0000
  O3          0.43531      0.01867      0.32225  1.0000
  O2          0.98650      0.41060      0.64996  1.0000
  O3          0.45187      0.42006      0.50898  1.0000
  O2          0.57339      0.01205      0.83674  1.0000
  O3          0.98164      0.54850      0.17548  1.0000
  O2          0.57374      0.59418      0.36441  1.0000
  O3          0.03380      0.42466      0.02794  1.0000
  O3          0.42261      0.97184      0.69118  1.0000
  O3          0.43187      0.44452      0.83949  1.0000
  O3          0.03428      0.58510      0.50641  1.0000
  O2          0.56042      0.98671      0.17698  1.0000
  O3          0.56666      0.14450      0.24031  1.0000
  O3          0.86767      0.43815      0.57869  1.0000
  O3          0.56803      0.41573      0.91342  1.0000
  O2          0.43447      0.86733      0.76862  1.0000
  O1          0.15759      0.58783      0.10424  1.0000
  O3          0.43083      0.56597      0.43683  1.0000
  F           0.41920      0.84510      0.25032  1.0000
  F           0.16700      0.57402      0.58175  1.0000
  F           0.43972      0.58567      0.91448  1.0000
  F           0.57211      0.15686      0.76225  1.0000
  F           0.85463      0.41585      0.09742  1.0000
  F           0.59345      0.43106      0.43330  1.0000
