data_cif

_audit_creation_method             'generated by GULP'

_symmetry_space_group_name_H-M     'P 1'
_symmetry_Int_Tables_number        1
_symmetry_cell_setting             triclinic

_cell_length_a                       12.1324
_cell_length_b                       12.1261
_cell_length_c                       29.8856
_cell_angle_alpha                   91.0649
_cell_angle_beta                    88.3419
_cell_angle_gamma                  120.0971

loop_
_atom_site_label
_atom_site_fract_x
_atom_site_fract_y
_atom_site_fract_z
_atom_site_occupancy
  Ge          0.69960      0.37570      0.03389  1.0000
  Ge          0.59863      0.32798      0.36694  1.0000
  Ge          0.66565      0.28869      0.70110  1.0000
  Ge          0.28678      0.61942      0.54369  1.0000
  Ge          0.36298      0.67396      0.87641  1.0000
  Ge          0.31994      0.69461      0.21205  1.0000
  Ge          0.36530      0.69190      0.31127  1.0000
  Si          0.30990      0.61007      0.97912  1.0000
  Si          0.30538      0.68518      0.64188  1.0000
  Si          0.61172      0.30456      0.80409  1.0000
  Ge          0.68015      0.35631      0.46253  1.0000
  Si          0.67858      0.30819      0.13583  1.0000
  Ge          0.52339      0.41025      0.96758  1.0000
  Si          0.55831      0.11068      0.29965  1.0000
  Ge          0.88866      0.46361      0.63362  1.0000
  Ge          0.45930      0.55888      0.48141  1.0000
  Ge          0.40402      0.88871      0.81026  1.0000
  Ge          0.10321      0.52673      0.14789  1.0000
  Si          0.40169      0.52019      0.37737  1.0000
  Ge          0.08798      0.56466      0.04671  1.0000
  Ge          0.46627      0.90199      0.71009  1.0000
  Ge          0.55831      0.47736      0.86895  1.0000
  Ge          0.90404      0.41322      0.52766  1.0000
  Ge          0.50102      0.08142      0.19652  1.0000
  Si          0.28325      0.39436      0.85106  1.0000
  Si          0.58838      0.87625      0.18438  1.0000
  Si          0.11058      0.70644      0.51503  1.0000
  Si          0.68667      0.60387      0.35267  1.0000
  Si          0.38195      0.08837      0.68461  1.0000
  Si          0.90134      0.29237      0.02011  1.0000
  Si          0.39655      0.27090      0.48349  1.0000
  Ge          0.87751      0.59366      0.15250  1.0000
  Si          0.69357      0.10386      0.81832  1.0000
  Si          0.59785      0.69707      0.98418  1.0000
  Si          0.10572      0.39562      0.64735  1.0000
  Si          0.27341      0.89042      0.31424  1.0000
  Si          0.24205      0.32998      0.95311  1.0000
  Si          0.64493      0.91149      0.28695  1.0000
  Si          0.09063      0.74795      0.61839  1.0000
  Si          0.74446      0.64291      0.45444  1.0000
  Si          0.32723      0.08960      0.78746  1.0000
  Si          0.89743      0.24491      0.12254  1.0000
  Si          0.31973      0.23671      0.38293  1.0000
  Si          0.90779      0.66578      0.05002  1.0000
  Si          0.74694      0.08278      0.71618  1.0000
  Si          0.65458      0.75613      0.88211  1.0000
  Si          0.10839      0.33422      0.54476  1.0000
  Si          0.21485      0.87688      0.21211  1.0000
  Si          0.96280      0.11281      0.96690  1.0000
  Si          0.86166      0.85885      0.30242  1.0000
  Si          0.14220      0.02241      0.63432  1.0000
  Si          0.01958      0.86693      0.46766  1.0000
  Si          0.10964      0.15301      0.80035  1.0000
  Si          0.84139      0.96629      0.13436  1.0000
  Si          0.09718      0.96729      0.36740  1.0000
  Si          0.84326      0.87814      0.03310  1.0000
  Si          0.02887      0.14932      0.69950  1.0000
  Si          0.87085      0.03677      0.86626  1.0000
  Si          0.14678      0.10145      0.53313  1.0000
  Si          0.94373      0.84268      0.20136  1.0000
  O2          0.92305      0.98988      0.99729  1.0000
  O2          0.97791      0.93110      0.33615  1.0000
  O2          0.05763      0.05943      0.66677  1.0000
  O2          0.05504      0.98313      0.50193  1.0000
  O2          0.98466      0.06676      0.83078  1.0000
  O2          0.92470      0.93315      0.16689  1.0000
  O3          0.32911      0.57951      0.35226  1.0000
  O3          0.40763      0.75902      0.67781  1.0000
  O3          0.23404      0.64395      0.01358  1.0000
  O3          0.64339      0.42478      0.83249  1.0000
  O3          0.55178      0.21435      0.16290  1.0000
  O1          0.77508      0.32460      0.49491  1.0000
  O1          0.56765      0.33089      0.00315  1.0000
  O1          0.75816      0.41807      0.66758  1.0000
  O3          0.63166      0.23465      0.32767  1.0000
  O1          0.42902      0.65275      0.51450  1.0000
  O1          0.21897      0.55358      0.18331  1.0000
  O1          0.32368      0.77275      0.84957  1.0000
  O2          0.11393      0.20574      0.97190  1.0000
  O2          0.77750      0.92799      0.30567  1.0000
  O2          0.08862      0.87168      0.63901  1.0000
  O2          0.87035      0.76791      0.47385  1.0000
  O2          0.20743      0.10164      0.80698  1.0000
  O2          0.88696      0.11465      0.14124  1.0000
  O2          0.18252      0.12043      0.36696  1.0000
  O2          0.90423      0.78768      0.02980  1.0000
  O2          0.87785      0.09056      0.69832  1.0000
  O2          0.77496      0.88637      0.86315  1.0000
  O2          0.09957      0.20233      0.52822  1.0000
  O2          0.09097      0.87939      0.19458  1.0000
  O2          0.91720      0.87097      0.25222  1.0000
  O2          0.12995      0.05529      0.58394  1.0000
  O2          0.92716      0.07369      0.91560  1.0000
  O2          0.07161      0.14238      0.74903  1.0000
  O2          0.85929      0.93688      0.08280  1.0000
  O2          0.04893      0.91844      0.41733  1.0000
  O2          0.88991      0.18566      0.98394  1.0000
  O2          0.77325      0.71113      0.31560  1.0000
  O2          0.28897      0.09882      0.64866  1.0000
  O2          0.10223      0.80056      0.47886  1.0000
  O2          0.17566      0.30007      0.81568  1.0000
  O2          0.69299      0.88111      0.14820  1.0000
  O2          0.17946      0.90369      0.35071  1.0000
  O2          0.69386      0.79856      0.02106  1.0000
  O2          0.10366      0.29637      0.68395  1.0000
  O2          0.79680      0.11234      0.85441  1.0000
  O2          0.29566      0.16562      0.51918  1.0000
  O3          0.85733      0.69519      0.19054  1.0000
  O1          0.31114      0.61475      0.26210  1.0000
  O3          0.36723      0.69837      0.59283  1.0000
  O3          0.30184      0.65718      0.92952  1.0000
  O3          0.65995      0.34698      0.75301  1.0000
  O3          0.64094      0.30238      0.08469  1.0000
  O1          0.68628      0.30818      0.40921  1.0000
  O3          0.35736      0.31191      0.96718  1.0000
  O2          0.64433      0.04105      0.29827  1.0000
  O3          0.95678      0.62807      0.63196  1.0000
  O3          0.62603      0.65035      0.47343  1.0000
  O3          0.30942      0.96016      0.80668  1.0000
  O3          0.02737      0.35829      0.13894  1.0000
  O2          0.32389      0.36717      0.36821  1.0000
  O3          0.03541      0.67263      0.03146  1.0000
  O3          0.63120      0.95328      0.69855  1.0000
  O3          0.66658      0.64266      0.85943  1.0000
  O3          0.98419      0.32829      0.52465  1.0000
  O3          0.33700      0.00371      0.19254  1.0000
  O3          0.78280      0.30964      0.00841  1.0000
  O3          0.68067      0.47525      0.33673  1.0000
  O3          0.51759      0.21511      0.67674  1.0000
  O3          0.24157      0.70853      0.50812  1.0000
  O3          0.28944      0.52904      0.84793  1.0000
  O3          0.46237      0.74334      0.17850  1.0000
  O3          0.27502      0.76410      0.32671  1.0000
  O2          0.46207      0.68971      0.99066  1.0000
  O2          0.23340      0.53099      0.65409  1.0000
  O2          0.68954      0.23505      0.82090  1.0000
  O3          0.52308      0.26175      0.48398  1.0000
  O3          0.73262      0.45231      0.15286  1.0000
  O3          0.78110      0.54025      0.03276  1.0000
  O3          0.43052      0.22490      0.35843  1.0000
  O3          0.74616      0.20468      0.69586  1.0000
  O3          0.23665      0.45304      0.52697  1.0000
  O3          0.52729      0.75505      0.86791  1.0000
  O3          0.21272      0.75175      0.19462  1.0000
  O3          0.52964      0.79453      0.31235  1.0000
  O2          0.26180      0.45839      0.97704  1.0000
  O2          0.19986      0.73221      0.64144  1.0000
  O2          0.45936      0.20361      0.80609  1.0000
  O3          0.74717      0.52034      0.47185  1.0000
  O2          0.77945      0.25892      0.14326  1.0000
  O2          0.22505      0.32839      0.89969  1.0000
  O2          0.64988      0.88968      0.23352  1.0000
  O2          0.10517      0.76435      0.56455  1.0000
  O2          0.75836      0.65545      0.39999  1.0000
  O2          0.31957      0.09073      0.73361  1.0000
  O2          0.88606      0.22719      0.06876  1.0000
  O2          0.31929      0.22501      0.43707  1.0000
  O3          0.90441      0.67981      0.10384  1.0000
  O2          0.75227      0.08962      0.77067  1.0000
  O2          0.66539      0.75949      0.93643  1.0000
  O2          0.10202      0.32956      0.59959  1.0000
  O2          0.20890      0.88242      0.26681  1.0000
  O3          0.58219      0.56082      0.99248  1.0000
  O2          0.41596      0.00914      0.31820  1.0000
  O3          0.98424      0.41184      0.65642  1.0000
  O3          0.43080      0.41089      0.49924  1.0000
  O3          0.55674      0.98804      0.83113  1.0000
  O1          0.99030      0.56322      0.16978  1.0000
  O2          0.54456      0.58679      0.35473  1.0000
  O3          0.03273      0.42157      0.01430  1.0000
  O3          0.38826      0.96236      0.67592  1.0000
  O3          0.41480      0.40192      0.83772  1.0000
  O3          0.98947      0.56638      0.50649  1.0000
  O3          0.56663      0.99437      0.17433  1.0000
  O3          0.54877      0.14506      0.24862  1.0000
  O1          0.84322      0.40521      0.58091  1.0000
  O1          0.58565      0.41015      0.91596  1.0000
  O1          0.40266      0.81852      0.76041  1.0000
  O1          0.16679      0.59497      0.09675  1.0000
  O3          0.39492      0.54674      0.42906  1.0000
  F           0.40629      0.84882      0.24375  1.0000
  F           0.12964      0.55173      0.57277  1.0000
  F           0.46547      0.52904      0.91005  1.0000
  F           0.52301      0.05561      0.74441  1.0000
  F           0.92819      0.47302      0.08091  1.0000
  F           0.55299      0.41294      0.41139  1.0000
