data_cif

_audit_creation_method             'generated by GULP'

_symmetry_space_group_name_H-M     'P 1'
_symmetry_Int_Tables_number        1
_symmetry_cell_setting             triclinic

_cell_length_a                       12.1306
_cell_length_b                       12.1215
_cell_length_c                       29.7625
_cell_angle_alpha                   89.6887
_cell_angle_beta                    90.5502
_cell_angle_gamma                  120.0224

loop_
_atom_site_label
_atom_site_fract_x
_atom_site_fract_y
_atom_site_fract_z
_atom_site_occupancy
  Ge          0.69960      0.37570      0.03389  1.0000
  Ge          0.67319      0.33784      0.36995  1.0000
  Si          0.71173      0.33628      0.70177  1.0000
  Ge          0.35966      0.65710      0.54016  1.0000
  Ge          0.39763      0.68851      0.87823  1.0000
  Si          0.33541      0.67909      0.20925  1.0000
  Ge          0.42423      0.73600      0.30459  1.0000
  Si          0.33447      0.63936      0.97610  1.0000
  Ge          0.32326      0.69373      0.63852  1.0000
  Ge          0.65045      0.31333      0.79971  1.0000
  Ge          0.72080      0.41257      0.46780  1.0000
  Ge          0.71877      0.33515      0.13372  1.0000
  Si          0.53778      0.42458      0.96470  1.0000
  Si          0.62818      0.12324      0.30247  1.0000
  Ge          0.93255      0.50134      0.63707  1.0000
  Si          0.53526      0.61822      0.47472  1.0000
  Ge          0.44967      0.92000      0.81616  1.0000
  Ge          0.10496      0.51292      0.14777  1.0000
  Ge          0.48068      0.56771      0.37026  1.0000
  Ge          0.11570      0.57168      0.04198  1.0000
  Ge          0.48999      0.91196      0.70792  1.0000
  Ge          0.58732      0.48323      0.85991  1.0000
  Si          0.94016      0.45560      0.53291  1.0000
  Ge          0.56039      0.10904      0.19777  1.0000
  Si          0.29832      0.41798      0.85212  1.0000
  Ge          0.62119      0.87834      0.19272  1.0000
  Si          0.15843      0.74171      0.52581  1.0000
  Si          0.76520      0.62650      0.35829  1.0000
  Si          0.42552      0.13535      0.69549  1.0000
  Si          0.89805      0.28389      0.02694  1.0000
  Si          0.45123      0.32977      0.49116  1.0000
  Si          0.90132      0.60453      0.15897  1.0000
  Si          0.74182      0.13738      0.82550  1.0000
  Ge          0.62040      0.71390      0.98307  1.0000
  Si          0.13939      0.42028      0.65810  1.0000
  Si          0.34160      0.92433      0.32285  1.0000
  Si          0.25841      0.35774      0.95503  1.0000
  Si          0.70590      0.91622      0.29513  1.0000
  Si          0.13648      0.78985      0.62791  1.0000
  Si          0.81541      0.69442      0.46056  1.0000
  Si          0.36849      0.12720      0.79835  1.0000
  Si          0.89869      0.22768      0.13060  1.0000
  Si          0.39291      0.28042      0.38887  1.0000
  Si          0.91725      0.66076      0.05552  1.0000
  Si          0.77741      0.12098      0.72199  1.0000
  Si          0.67794      0.77378      0.88017  1.0000
  Si          0.13887      0.37342      0.55493  1.0000
  Si          0.27724      0.90323      0.22054  1.0000
  Si          0.98910      0.12554      0.97426  1.0000
  Si          0.93478      0.87700      0.30821  1.0000
  Si          0.18074      0.06232      0.64111  1.0000
  Si          0.08582      0.91834      0.47444  1.0000
  Si          0.13538      0.16427      0.80612  1.0000
  Si          0.86871      0.95781      0.14091  1.0000
  Si          0.17386      0.00704      0.37361  1.0000
  Si          0.87171      0.88703      0.03851  1.0000
  Si          0.04941      0.16585      0.70571  1.0000
  Si          0.90540      0.04585      0.87252  1.0000
  Si          0.19702      0.15782      0.53983  1.0000
  Si          0.00294      0.85914      0.20667  1.0000
  O2          0.96201      0.00734      0.00663  1.0000
  O2          0.05639      0.96416      0.33932  1.0000
  O2          0.08467      0.08813      0.67030  1.0000
  O2          0.12532      0.03994      0.50579  1.0000
  O2          0.02357      0.08066      0.84058  1.0000
  O2          0.97019      0.94154      0.17194  1.0000
  O1          0.38923      0.60579      0.33955  1.0000
  O1          0.45016      0.78557      0.67531  1.0000
  O3          0.25071      0.66387      0.01184  1.0000
  O1          0.68283      0.45281      0.82913  1.0000
  O1          0.58656      0.23554      0.16700  1.0000
  O3          0.82567      0.37955      0.50021  1.0000
  O3          0.58367      0.34279      0.99385  1.0000
  O3          0.78967      0.44355      0.66518  1.0000
  O3          0.70463      0.25121      0.33083  1.0000
  O3          0.48613      0.69283      0.50483  1.0000
  O3          0.23934      0.55773      0.18004  1.0000
  O1          0.36306      0.79442      0.85004  1.0000
  O2          0.13876      0.23188      0.97674  1.0000
  O2          0.84130      0.93458      0.31326  1.0000
  O2          0.12387      0.91111      0.64359  1.0000
  O2          0.93371      0.82956      0.47771  1.0000
  O2          0.23613      0.11776      0.81406  1.0000
  O2          0.90188      0.10319      0.14838  1.0000
  O2          0.26069      0.15885      0.37057  1.0000
  O2          0.92180      0.78642      0.03436  1.0000
  O2          0.90003      0.11807      0.70138  1.0000
  O2          0.81028      0.89735      0.86383  1.0000
  O2          0.13127      0.24452      0.53508  1.0000
  O2          0.14941      0.89774      0.20034  1.0000
  O2          0.97998      0.88797      0.25701  1.0000
  O2          0.18218      0.10529      0.59002  1.0000
  O2          0.95198      0.07371      0.92415  1.0000
  O2          0.08224      0.13884      0.75545  1.0000
  O2          0.89121      0.93793      0.08923  1.0000
  O2          0.12330      0.96376      0.42354  1.0000
  O2          0.90660      0.18884      0.99061  1.0000
  O2          0.86394      0.72867      0.32187  1.0000
  O2          0.32537      0.13863      0.65926  1.0000
  O2          0.15444      0.83882      0.48866  1.0000
  O2          0.19795      0.31443      0.81665  1.0000
  O3          0.72421      0.86586      0.15412  1.0000
  O2          0.25777      0.94349      0.36033  1.0000
  O3          0.72540      0.81611      0.02464  1.0000
  O2          0.12902      0.31556      0.69460  1.0000
  O2          0.84098      0.13066      0.86114  1.0000
  O2          0.34642      0.24187      0.52835  1.0000
  O2          0.91330      0.70971      0.19521  1.0000
  O3          0.33281      0.63259      0.25928  1.0000
  O1          0.42090      0.71176      0.59183  1.0000
  O3          0.33107      0.70377      0.93029  1.0000
  O3          0.72491      0.40008      0.74942  1.0000
  O1          0.63066      0.32452      0.08477  1.0000
  O1          0.72733      0.32446      0.42122  1.0000
  O2          0.38448      0.35640      0.97176  1.0000
  O2          0.70448      0.04547      0.30890  1.0000
  O3          0.00783      0.66538      0.64389  1.0000
  O2          0.68933      0.69270      0.47941  1.0000
  O3          0.36276      0.00073      0.81625  1.0000
  O3          0.02152      0.34848      0.15229  1.0000
  O3          0.38509      0.40173      0.37502  1.0000
  O3          0.04916      0.66922      0.04445  1.0000
  O3          0.65730      0.99305      0.70673  1.0000
  O3          0.68193      0.65018      0.86588  1.0000
  O2          0.01206      0.37227      0.53826  1.0000
  O3          0.39330      0.02964      0.20250  1.0000
  O3          0.76694      0.28185      0.01880  1.0000
  O3          0.76878      0.49761      0.35209  1.0000
  O2          0.56120      0.26320      0.68649  1.0000
  O3          0.29046      0.74511      0.51942  1.0000
  O3          0.29301      0.54574      0.84835  1.0000
  O3          0.47791      0.73623      0.18867  1.0000
  O3          0.34470      0.79929      0.33613  1.0000
  O3          0.47646      0.70089      0.99752  1.0000
  O3          0.26647      0.54800      0.66956  1.0000
  O3          0.74801      0.27030      0.83274  1.0000
  O3          0.58043      0.33108      0.50176  1.0000
  O3          0.77163      0.47626      0.16702  1.0000
  O3          0.80360      0.53945      0.03111  1.0000
  O3          0.50945      0.27713      0.36530  1.0000
  O2          0.77242      0.24202      0.70094  1.0000
  O3          0.26294      0.49240      0.53492  1.0000
  O3          0.56071      0.78241      0.85966  1.0000
  O2          0.28099      0.77863      0.20304  1.0000
  O3          0.59194      0.79499      0.31822  1.0000
  O2          0.25950      0.48167      0.97522  1.0000
  O3          0.25877      0.79711      0.65045  1.0000
  O3          0.48582      0.25422      0.81793  1.0000
  O3          0.82731      0.57979      0.48015  1.0000
  O3          0.77206      0.22157      0.14742  1.0000
  O2          0.24654      0.34905      0.90120  1.0000
  O3          0.70941      0.90048      0.24124  1.0000
  O2          0.14595      0.79893      0.57312  1.0000
  O2          0.82046      0.69913      0.40580  1.0000
  O2          0.36494      0.13540      0.74338  1.0000
  O2          0.90811      0.22947      0.07570  1.0000
  O2          0.39179      0.26180      0.44304  1.0000
  O2          0.90042      0.66357      0.10947  1.0000
  O2          0.79545      0.12939      0.77609  1.0000
  O3          0.68775      0.79539      0.93490  1.0000
  O2          0.14320      0.36245      0.60901  1.0000
  O2          0.26888      0.90598      0.27487  1.0000
  O3          0.60687      0.56566      0.98650  1.0000
  O2          0.48478      0.04691      0.32289  1.0000
  O3          0.01571      0.43649      0.66240  1.0000
  O2          0.47167      0.47295      0.49352  1.0000
  O3          0.60326      0.01999      0.83641  1.0000
  O3          0.02231      0.58468      0.16676  1.0000
  O3          0.62395      0.59715      0.34742  1.0000
  O3          0.01170      0.42653      0.01799  1.0000
  O3          0.43933      0.01418      0.68725  1.0000
  O3          0.43828      0.44588      0.83950  1.0000
  O2          0.04554      0.59818      0.51658  1.0000
  O1          0.59546      0.99789      0.17679  1.0000
  O3          0.62941      0.15816      0.25080  1.0000
  O3          0.88945      0.46278      0.58208  1.0000
  O3          0.57226      0.41997      0.91411  1.0000
  O1          0.44469      0.86766      0.76223  1.0000
  O1          0.16185      0.55505      0.09441  1.0000
  O3          0.49857      0.62853      0.42401  1.0000
  F           0.48225      0.87071      0.26353  1.0000
  F           0.18202      0.60531      0.59915  1.0000
  F           0.45675      0.59562      0.91314  1.0000
  F           0.58839      0.16271      0.76809  1.0000
  F           0.86864      0.42250      0.09975  1.0000
  F           0.63228      0.46556      0.42928  1.0000
