data_cif

_audit_creation_method             'generated by GULP'

_symmetry_space_group_name_H-M     'P 1'
_symmetry_Int_Tables_number        1
_symmetry_cell_setting             triclinic

_cell_length_a                       11.8996
_cell_length_b                       11.9725
_cell_length_c                       29.4768
_cell_angle_alpha                   89.5039
_cell_angle_beta                    90.7136
_cell_angle_gamma                  119.6641

loop_
_atom_site_label
_atom_site_fract_x
_atom_site_fract_y
_atom_site_fract_z
_atom_site_occupancy
  Si          0.69960      0.37570      0.03389  1.0000
  Si          0.61556      0.32479      0.36853  1.0000
  Si          0.65935      0.29375      0.70199  1.0000
  Si          0.28179      0.61990      0.53967  1.0000
  Si          0.36741      0.67480      0.87050  1.0000
  Si          0.31710      0.69216      0.20372  1.0000
  Si          0.37178      0.69709      0.30663  1.0000
  Si          0.31877      0.61621      0.97103  1.0000
  Si          0.27962      0.67180      0.63965  1.0000
  Si          0.60904      0.29632      0.80263  1.0000
  Ge          0.65683      0.38974      0.46668  1.0000
  Si          0.69580      0.31741      0.13432  1.0000
  Si          0.52671      0.41552      0.96858  1.0000
  Si          0.58157      0.12093      0.30124  1.0000
  Si          0.86844      0.46716      0.63714  1.0000
  Si          0.45756      0.58248      0.47628  1.0000
  Si          0.40431      0.88599      0.80586  1.0000
  Si          0.10412      0.52012      0.13874  1.0000
  Si          0.39959      0.52588      0.37370  1.0000
  Si          0.11107      0.57644      0.03715  1.0000
  Si          0.45227      0.88217      0.70420  1.0000
  Si          0.57427      0.46995      0.86705  1.0000
  Si          0.86777      0.41805      0.53459  1.0000
  Si          0.52115      0.10631      0.19765  1.0000
  Si          0.29080      0.39788      0.85415  1.0000
  Si          0.59633      0.89427      0.18361  1.0000
  Si          0.08148      0.69915      0.52347  1.0000
  Si          0.68810      0.60696      0.35769  1.0000
  Si          0.37994      0.09171      0.68853  1.0000
  Si          0.90163      0.29706      0.02160  1.0000
  Si          0.38520      0.29586      0.49156  1.0000
  Si          0.89498      0.59336      0.15149  1.0000
  Si          0.68534      0.09477      0.81891  1.0000
  Si          0.59898      0.69440      0.98436  1.0000
  Si          0.07909      0.39550      0.65309  1.0000
  Si          0.29875      0.90747      0.31867  1.0000
  Si          0.24618      0.33690      0.95479  1.0000
  Ge          0.63682      0.90984      0.28372  1.0000
  Si          0.07065      0.74518      0.62415  1.0000
  Si          0.74379      0.67086      0.46001  1.0000
  Si          0.32769      0.08809      0.78926  1.0000
  Si          0.90454      0.24298      0.12240  1.0000
  Si          0.32825      0.24719      0.38852  1.0000
  Si          0.90851      0.65484      0.05078  1.0000
  Si          0.73152      0.08431      0.71845  1.0000
  Si          0.65132      0.74736      0.88364  1.0000
  Si          0.07172      0.34078      0.55263  1.0000
  Si          0.24202      0.90565      0.21628  1.0000
  Si          0.96780      0.11746      0.97005  1.0000
  Si          0.86554      0.85227      0.30327  1.0000
  Si          0.12910      0.02261      0.63823  1.0000
  Si          0.02065      0.88570      0.47099  1.0000
  Si          0.10956      0.15036      0.80425  1.0000
  Si          0.84163      0.96281      0.13506  1.0000
  Si          0.11261      0.97000      0.36917  1.0000
  Si          0.84904      0.87431      0.03485  1.0000
  Si          0.01158      0.14691      0.70341  1.0000
  Si          0.86786      0.02702      0.86934  1.0000
  Si          0.13109      0.12188      0.53824  1.0000
  Si          0.95694      0.83712      0.20311  1.0000
  O2          0.92867      0.99544      0.00228  1.0000
  O2          0.99324      0.92764      0.33521  1.0000
  O2          0.05233      0.06677      0.67099  1.0000
  O2          0.06578      0.01117      0.50099  1.0000
  O2          0.98954      0.07028      0.83711  1.0000
  O2          0.91422      0.91623      0.16999  1.0000
  O2          0.32155      0.57337      0.34066  1.0000
  O2          0.40299      0.75589      0.67282  1.0000
  O2          0.23655      0.65356      0.00530  1.0000
  O2          0.64952      0.42133      0.83427  1.0000
  O2          0.56820      0.22979      0.16470  1.0000
  O3          0.74923      0.34465      0.50192  1.0000
  O2          0.57775      0.33790      0.00026  1.0000
  O2          0.74142      0.41556      0.66890  1.0000
  O2          0.64859      0.25367      0.32890  1.0000
  O2          0.40637      0.65754      0.50765  1.0000
  O2          0.22865      0.56835      0.17257  1.0000
  O2          0.32802      0.76156      0.83877  1.0000
  O2          0.12240      0.20880      0.97478  1.0000
  O3          0.78379      0.92084      0.30536  1.0000
  O2          0.06752      0.86939      0.64445  1.0000
  O2          0.86566      0.80704      0.47595  1.0000
  O2          0.20251      0.08881      0.81004  1.0000
  O2          0.90452      0.11624      0.14235  1.0000
  O2          0.20362      0.12441      0.36637  1.0000
  O2          0.91193      0.78245      0.03015  1.0000
  O2          0.85680      0.08280      0.69823  1.0000
  O2          0.77652      0.87350      0.86354  1.0000
  O2          0.06728      0.21244      0.53261  1.0000
  O2          0.11223      0.89944      0.19669  1.0000
  O2          0.92108      0.84849      0.25387  1.0000
  O2          0.10881      0.05769      0.58742  1.0000
  O2          0.92264      0.06456      0.91993  1.0000
  O2          0.05388      0.13458      0.75393  1.0000
  O2          0.86576      0.92899      0.08519  1.0000
  O2          0.06126      0.92693      0.41940  1.0000
  O2          0.89917      0.19972      0.98327  1.0000
  O2          0.77776      0.70232      0.31830  1.0000
  O2          0.28197      0.09231      0.64973  1.0000
  O2          0.08521      0.79992      0.48536  1.0000
  O2          0.19056      0.30201      0.81601  1.0000
  O2          0.68677      0.89490      0.14216  1.0000
  O2          0.20102      0.90658      0.35632  1.0000
  O2          0.69691      0.79208      0.02274  1.0000
  O2          0.07987      0.29785      0.69156  1.0000
  O2          0.78512      0.09711      0.85768  1.0000
  O2          0.28396      0.20688      0.52990  1.0000
  O2          0.88998      0.68668      0.19013  1.0000
  O2          0.31949      0.64343      0.25519  1.0000
  O2          0.34094      0.67432      0.59007  1.0000
  O2          0.31346      0.67412      0.92126  1.0000
  O2          0.66302      0.35199      0.75218  1.0000
  O2          0.64025      0.31939      0.08383  1.0000
  O3          0.67371      0.31460      0.41597  1.0000
  O2          0.37062      0.32737      0.97253  1.0000
  O3          0.67271      0.05991      0.30750  1.0000
  O2          0.93821      0.62269      0.64183  1.0000
  O2          0.61368      0.67058      0.47725  1.0000
  O2          0.31754      0.95619      0.80859  1.0000
  O2          0.03567      0.36447      0.14236  1.0000
  O2          0.31667      0.37084      0.37252  1.0000
  O2          0.04242      0.66457      0.03444  1.0000
  O2          0.60888      0.95134      0.70109  1.0000
  O2          0.66106      0.62579      0.86465  1.0000
  O2          0.94016      0.33229      0.53434  1.0000
  O2          0.36396      0.03480      0.19666  1.0000
  O2          0.76857      0.29987      0.01314  1.0000
  O2          0.68885      0.47387      0.35085  1.0000
  O2          0.51400      0.22447      0.68052  1.0000
  O2          0.21696      0.69914      0.51699  1.0000
  O2          0.29069      0.53242      0.84795  1.0000
  O2          0.45943      0.75936      0.18108  1.0000
  O2          0.30225      0.77521      0.32544  1.0000
  O2          0.46353      0.69172      0.99298  1.0000
  O2          0.21203      0.52915      0.66247  1.0000
  O2          0.68515      0.22875      0.82593  1.0000
  O3          0.51419      0.29280      0.49972  1.0000
  O2          0.76205      0.45807      0.15819  1.0000
  O2          0.78383      0.53109      0.02980  1.0000
  O2          0.45722      0.25586      0.36837  1.0000
  O2          0.73195      0.20985      0.69800  1.0000
  O2          0.20027      0.46462      0.53337  1.0000
  O2          0.52356      0.74791      0.86520  1.0000
  O2          0.25244      0.78307      0.20056  1.0000
  O3          0.52509      0.76782      0.31287  1.0000
  O2          0.24411      0.46036      0.97543  1.0000
  O2          0.19849      0.74768      0.64445  1.0000
  O2          0.45293      0.21562      0.80819  1.0000
  O3          0.75890      0.55778      0.48097  1.0000
  O2          0.77584      0.24053      0.14071  1.0000
  O2          0.22384      0.32190      0.90058  1.0000
  O3          0.68132      0.90250      0.22685  1.0000
  O2          0.07407      0.76663      0.56988  1.0000
  O2          0.75352      0.67755      0.40478  1.0000
  O2          0.30696      0.08858      0.73498  1.0000
  O2          0.90552      0.22630      0.06815  1.0000
  O2          0.31676      0.23102      0.44281  1.0000
  O2          0.90061      0.66895      0.10501  1.0000
  O2          0.75442      0.08867      0.77278  1.0000
  O2          0.67138      0.76528      0.93798  1.0000
  O2          0.07760      0.32269      0.60691  1.0000
  O2          0.23493      0.91070      0.27048  1.0000
  O2          0.58670      0.55538      0.99264  1.0000
  O2          0.43984      0.03140      0.32445  1.0000
  O2          0.95168      0.40777      0.66058  1.0000
  O2          0.40763      0.44091      0.49700  1.0000
  O2          0.54682      0.96965      0.82873  1.0000
  O2          0.02254      0.58111      0.16122  1.0000
  O2          0.54101      0.57739      0.35280  1.0000
  O2          0.02700      0.43628      0.01391  1.0000
  O2          0.39441      0.96640      0.68079  1.0000
  O2          0.43129      0.41425      0.84471  1.0000
  O2          0.95961      0.56075      0.51326  1.0000
  O2          0.57130      0.01482      0.17646  1.0000
  O2          0.57386      0.15821      0.24823  1.0000
  O2          0.81835      0.42077      0.58595  1.0000
  O2          0.57743      0.41613      0.91766  1.0000
  O2          0.40190      0.83143      0.75537  1.0000
  O2          0.16185      0.57364      0.08854  1.0000
  O2          0.40480      0.57682      0.42467  1.0000
  F           0.48394      0.90314      0.25747  1.0000
  F           0.08663      0.55005      0.58929  1.0000
  F           0.44468      0.54545      0.92041  1.0000
  F           0.53296      0.09304      0.75478  1.0000
  F           0.89985      0.44516      0.08800  1.0000
  F           0.56101      0.44195      0.43132  1.0000
