data_cif

_audit_creation_method             'generated by GULP'

_symmetry_space_group_name_H-M     'P 1'
_symmetry_Int_Tables_number        1
_symmetry_cell_setting             triclinic

_cell_length_a                       12.1529
_cell_length_b                       12.1671
_cell_length_c                       29.9433
_cell_angle_alpha                   91.3747
_cell_angle_beta                    89.8216
_cell_angle_gamma                  120.2023

loop_
_atom_site_label
_atom_site_fract_x
_atom_site_fract_y
_atom_site_fract_z
_atom_site_occupancy
  Ge          0.69960      0.37570      0.03389  1.0000
  Si          0.63749      0.32424      0.36482  1.0000
  Ge          0.69360      0.31834      0.70440  1.0000
  Ge          0.34127      0.63652      0.53752  1.0000
  Ge          0.37233      0.68824      0.87159  1.0000
  Si          0.34047      0.70581      0.20248  1.0000
  Ge          0.39991      0.71390      0.30472  1.0000
  Ge          0.34191      0.62126      0.96873  1.0000
  Ge          0.29657      0.67828      0.63570  1.0000
  Ge          0.62784      0.29275      0.80289  1.0000
  Ge          0.69749      0.38505      0.46768  1.0000
  Ge          0.72527      0.33644      0.13193  1.0000
  Si          0.52140      0.41369      0.97022  1.0000
  Ge          0.58941      0.09979      0.29887  1.0000
  Ge          0.91117      0.48788      0.63665  1.0000
  Ge          0.50765      0.58118      0.46858  1.0000
  Ge          0.42361      0.90739      0.80542  1.0000
  Ge          0.11514      0.52322      0.14017  1.0000
  Ge          0.43793      0.53757      0.36953  1.0000
  Ge          0.12062      0.56770      0.03443  1.0000
  Si          0.47378      0.90018      0.70186  1.0000
  Ge          0.56687      0.46196      0.86637  1.0000
  Ge          0.92266      0.43472      0.53169  1.0000
  Ge          0.55715      0.12346      0.19828  1.0000
  Si          0.28006      0.40011      0.85889  1.0000
  Si          0.62397      0.90238      0.19046  1.0000
  Si          0.14003      0.72259      0.52331  1.0000
  Si          0.72519      0.61024      0.35586  1.0000
  Si          0.40594      0.11702      0.69386  1.0000
  Si          0.89352      0.28092      0.02475  1.0000
  Si          0.41767      0.30654      0.49012  1.0000
  Si          0.90868      0.60738      0.15573  1.0000
  Si          0.71419      0.10986      0.82487  1.0000
  Si          0.61229      0.70252      0.98905  1.0000
  Si          0.11589      0.40589      0.65687  1.0000
  Si          0.31718      0.91410      0.32216  1.0000
  Si          0.23955      0.33740      0.96061  1.0000
  Si          0.68915      0.92026      0.29243  1.0000
  Si          0.11151      0.77267      0.62486  1.0000
  Si          0.78538      0.67525      0.45781  1.0000
  Si          0.34210      0.11121      0.79552  1.0000
  Si          0.90990      0.23700      0.12730  1.0000
  Si          0.35722      0.25776      0.38751  1.0000
  Si          0.92246      0.65739      0.05358  1.0000
  Si          0.75682      0.09982      0.72183  1.0000
  Si          0.65670      0.74998      0.88693  1.0000
  Si          0.11936      0.35183      0.55437  1.0000
  Si          0.27295      0.91983      0.21962  1.0000
  Si          0.97118      0.10731      0.97426  1.0000
  Si          0.90364      0.85536      0.30713  1.0000
  Si          0.15957      0.04411      0.64059  1.0000
  Si          0.06478      0.89342      0.47409  1.0000
  Si          0.11099      0.15072      0.80709  1.0000
  Si          0.86764      0.96598      0.14066  1.0000
  Si          0.13996      0.97799      0.37345  1.0000
  Si          0.86689      0.87424      0.03953  1.0000
  Si          0.03039      0.15428      0.70589  1.0000
  Si          0.87961      0.02349      0.87305  1.0000
  Si          0.17472      0.13185      0.54012  1.0000
  Si          0.99367      0.85942      0.20650  1.0000
  O2          0.94078      0.99076      0.00615  1.0000
  O2          0.01634      0.93768      0.34275  1.0000
  O2          0.07205      0.07731      0.67203  1.0000
  O2          0.09331      0.00893      0.50822  1.0000
  O2          0.99302      0.05941      0.83809  1.0000
  O2          0.95502      0.93979      0.17434  1.0000
  O1          0.35700      0.57822      0.33297  1.0000
  O3          0.43112      0.78158      0.67083  1.0000
  O1          0.24630      0.65732      0.00330  1.0000
  O1          0.66102      0.42660      0.83645  1.0000
  O1          0.58824      0.23842      0.16262  1.0000
  O1          0.79710      0.34848      0.49635  1.0000
  O3          0.57543      0.33934      0.99730  1.0000
  O1          0.77393      0.43384      0.66662  1.0000
  O3          0.67067      0.24300      0.33327  1.0000
  O1          0.46208      0.66972      0.50369  1.0000
  O3          0.25476      0.58380      0.17204  1.0000
  O1          0.33752      0.77148      0.83483  1.0000
  O2          0.12246      0.20398      0.97802  1.0000
  O2          0.81171      0.91414      0.31012  1.0000
  O2          0.09525      0.89248      0.64053  1.0000
  O2          0.91521      0.79652      0.47646  1.0000
  O2          0.20950      0.10028      0.81149  1.0000
  O2          0.92134      0.11661      0.14366  1.0000
  O2          0.23473      0.12849      0.36810  1.0000
  O2          0.93077      0.78671      0.03514  1.0000
  O2          0.87795      0.09169      0.70202  1.0000
  O2          0.78424      0.87304      0.86811  1.0000
  O2          0.11826      0.22529      0.53475  1.0000
  O2          0.14371      0.91282      0.20077  1.0000
  O2          0.96096      0.87265      0.25770  1.0000
  O2          0.16195      0.09071      0.59095  1.0000
  O2          0.93407      0.05865      0.92332  1.0000
  O2          0.06653      0.14051      0.75606  1.0000
  O2          0.87938      0.92580      0.09021  1.0000
  O2          0.10152      0.94696      0.42464  1.0000
  O2          0.89441      0.17782      0.98912  1.0000
  O2          0.82601      0.70618      0.31919  1.0000
  O2          0.30526      0.11085      0.65707  1.0000
  O2          0.14121      0.82195      0.48711  1.0000
  O2          0.17691      0.29777      0.82287  1.0000
  O2          0.71931      0.89009      0.15463  1.0000
  O2          0.20963      0.90174      0.35749  1.0000
  O2          0.71853      0.79101      0.02629  1.0000
  O2          0.10194      0.30209      0.69323  1.0000
  O2          0.80721      0.09959      0.86132  1.0000
  O2          0.32256      0.20309      0.52599  1.0000
  O2          0.91588      0.71165      0.19215  1.0000
  O3          0.33438      0.65967      0.25237  1.0000
  O1          0.39222      0.68427      0.59140  1.0000
  O1          0.32783      0.70566      0.92375  1.0000
  O1          0.70792      0.38411      0.75608  1.0000
  O1          0.63513      0.32954      0.08487  1.0000
  O3          0.68333      0.32127      0.41534  1.0000
  O2          0.36854      0.34192      0.97811  1.0000
  O3          0.70044      0.04818      0.31180  1.0000
  O3          0.98892      0.65137      0.64496  1.0000
  O3          0.67341      0.68998      0.47847  1.0000
  O3          0.33897      0.98616      0.81319  1.0000
  O3          0.03399      0.36052      0.14821  1.0000
  O3          0.33978      0.37190      0.37170  1.0000
  O3          0.05297      0.66523      0.04279  1.0000
  O2          0.62948      0.97123      0.70669  1.0000
  O3          0.66256      0.62833      0.87164  1.0000
  O3          0.98560      0.33631      0.54011  1.0000
  O3          0.38833      0.04777      0.20336  1.0000
  O3          0.76038      0.27555      0.01852  1.0000
  O2          0.71783      0.47438      0.35091  1.0000
  O3          0.53374      0.24828      0.68694  1.0000
  O3          0.27390      0.73087      0.52169  1.0000
  O3          0.27432      0.52718      0.85470  1.0000
  O2          0.48814      0.77048      0.18695  1.0000
  O3          0.32720      0.78929      0.33044  1.0000
  O3          0.48549      0.70199      0.00178  1.0000
  O3          0.23840      0.53893      0.66923  1.0000
  O3          0.71567      0.23919      0.83517  1.0000
  O3          0.55299      0.31360      0.49537  1.0000
  O3          0.78367      0.47790      0.16630  1.0000
  O3          0.80675      0.53724      0.02825  1.0000
  O2          0.48632      0.27717      0.36531  1.0000
  O3          0.75974      0.21979      0.70058  1.0000
  O3          0.22977      0.47356      0.53140  1.0000
  O3          0.53620      0.74988      0.86558  1.0000
  O2          0.28475      0.80170      0.19853  1.0000
  O3          0.56424      0.79621      0.31042  1.0000
  O3          0.23108      0.45366      0.98130  1.0000
  O3          0.23894      0.78785      0.64495  1.0000
  O3          0.45994      0.23692      0.81589  1.0000
  O3          0.78372      0.54953      0.47478  1.0000
  O3          0.78368      0.22908      0.14541  1.0000
  O2          0.23010      0.32977      0.90623  1.0000
  O2          0.69370      0.91683      0.23797  1.0000
  O2          0.10822      0.76948      0.57030  1.0000
  O2          0.78840      0.67957      0.40338  1.0000
  O2          0.33789      0.10933      0.74100  1.0000
  O2          0.91366      0.23361      0.07267  1.0000
  O2          0.35447      0.24472      0.44119  1.0000
  O2          0.89965      0.65975      0.10701  1.0000
  O2          0.77375      0.11050      0.77571  1.0000
  O2          0.66546      0.76864      0.94115  1.0000
  O2          0.13160      0.35080      0.60837  1.0000
  O2          0.25571      0.90903      0.27320  1.0000
  O2          0.59202      0.55954      0.99003  1.0000
  O3          0.44736      0.04205      0.33189  1.0000
  O3          0.98748      0.41391      0.65940  1.0000
  O3          0.42737      0.43938      0.50113  1.0000
  O3          0.57359      0.98857      0.83017  1.0000
  O3          0.03596      0.59788      0.16080  1.0000
  O3          0.58865      0.59267      0.34622  1.0000
  O3          0.00269      0.42137      0.01303  1.0000
  O2          0.43742      0.00465      0.68526  1.0000
  O3          0.42011      0.43033      0.84583  1.0000
  O3          0.03136      0.57947      0.50971  1.0000
  O3          0.60185      0.01473      0.17787  1.0000
  O1          0.61923      0.18466      0.25014  1.0000
  O1          0.86437      0.45044      0.58211  1.0000
  O3          0.54898      0.40041      0.91921  1.0000
  O3          0.41716      0.85717      0.75129  1.0000
  O1          0.16707      0.55117      0.08698  1.0000
  O1          0.43977      0.60357      0.42026  1.0000
  F           0.49498      0.94539      0.26430  1.0000
  F           0.14953      0.58326      0.59845  1.0000
  F           0.42183      0.56313      0.92951  1.0000
  F           0.56744      0.14637      0.76665  1.0000
  F           0.87324      0.42330      0.09667  1.0000
  F           0.55819      0.48385      0.43085  1.0000
