data_cif

_audit_creation_method             'generated by GULP'

_symmetry_space_group_name_H-M     'P 1'
_symmetry_Int_Tables_number        1
_symmetry_cell_setting             triclinic

_cell_length_a                       12.1207
_cell_length_b                       12.1011
_cell_length_c                       29.8318
_cell_angle_alpha                   89.8507
_cell_angle_beta                    90.1328
_cell_angle_gamma                  120.0359

loop_
_atom_site_label
_atom_site_fract_x
_atom_site_fract_y
_atom_site_fract_z
_atom_site_occupancy
  Ge          0.69960      0.37570      0.03389  1.0000
  Ge          0.64036      0.32756      0.36663  1.0000
  Ge          0.69971      0.31384      0.70052  1.0000
  Ge          0.32463      0.63350      0.54983  1.0000
  Ge          0.38996      0.68948      0.88496  1.0000
  Ge          0.33391      0.69699      0.21716  1.0000
  Ge          0.39185      0.69917      0.31541  1.0000
  Si          0.32998      0.63416      0.98269  1.0000
  Ge          0.32101      0.68389      0.64864  1.0000
  Ge          0.64623      0.31871      0.79909  1.0000
  Ge          0.69621      0.37669      0.46543  1.0000
  Ge          0.70253      0.31801      0.13222  1.0000
  Si          0.54126      0.42565      0.96404  1.0000
  Ge          0.58395      0.11374      0.29488  1.0000
  Si          0.90848      0.47493      0.63009  1.0000
  Ge          0.50006      0.57550      0.48972  1.0000
  Ge          0.44651      0.92432      0.82675  1.0000
  Ge          0.10117      0.52333      0.15655  1.0000
  Si          0.43751      0.53596      0.38558  1.0000
  Ge          0.11497      0.57757      0.05055  1.0000
  Ge          0.48087      0.89747      0.72059  1.0000
  Ge          0.58613      0.49232      0.85979  1.0000
  Ge          0.92970      0.43479      0.52602  1.0000
  Si          0.51769      0.08875      0.19128  1.0000
  Si          0.29585      0.42336      0.85416  1.0000
  Si          0.59848      0.87783      0.18678  1.0000
  Si          0.14987      0.72623      0.52059  1.0000
  Si          0.72166      0.61595      0.36430  1.0000
  Si          0.40763      0.11023      0.69717  1.0000
  Si          0.90416      0.29000      0.02922  1.0000
  Si          0.42886      0.28388      0.49471  1.0000
  Si          0.87707      0.58747      0.16062  1.0000
  Si          0.73753      0.14343      0.82918  1.0000
  Ge          0.61888      0.71372      0.98475  1.0000
  Si          0.11348      0.39526      0.65117  1.0000
  Si          0.30069      0.89986      0.31913  1.0000
  Si          0.26019      0.35617      0.95668  1.0000
  Si          0.67207      0.91291      0.28871  1.0000
  Si          0.11463      0.75920      0.62289  1.0000
  Si          0.78650      0.66072      0.46615  1.0000
  Si          0.36327      0.12654      0.79946  1.0000
  Si          0.90071      0.23689      0.13134  1.0000
  Si          0.35904      0.25172      0.39242  1.0000
  Si          0.90820      0.65783      0.05808  1.0000
  Si          0.76895      0.10286      0.72683  1.0000
  Si          0.67216      0.78163      0.88201  1.0000
  Si          0.13161      0.34979      0.54936  1.0000
  Si          0.23865      0.88620      0.21646  1.0000
  Si          0.98998      0.12681      0.97572  1.0000
  Si          0.89321      0.86329      0.30879  1.0000
  Si          0.15827      0.02867      0.64269  1.0000
  Si          0.05985      0.88983      0.47425  1.0000
  Si          0.13426      0.17049      0.80747  1.0000
  Si          0.85405      0.96499      0.14151  1.0000
  Si          0.13328      0.98212      0.37300  1.0000
  Si          0.86809      0.88834      0.04076  1.0000
  Si          0.03760      0.14774      0.70667  1.0000
  Si          0.90237      0.05357      0.87420  1.0000
  Si          0.17598      0.12077      0.54137  1.0000
  Si          0.96574      0.84111      0.20789  1.0000
  O2          0.95875      0.00733      0.00811  1.0000
  O2          0.01302      0.94962      0.34107  1.0000
  O2          0.06994      0.06049      0.67447  1.0000
  O2          0.09250      0.00502      0.50794  1.0000
  O2          0.01792      0.08707      0.84060  1.0000
  O2          0.92810      0.92464      0.17657  1.0000
  O3          0.36241      0.59036      0.35811  1.0000
  O1          0.42458      0.75772      0.69198  1.0000
  O3          0.25420      0.66121      0.02065  1.0000
  O1          0.67813      0.46016      0.82712  1.0000
  O3          0.55598      0.20203      0.15817  1.0000
  O1          0.80488      0.34361      0.49325  1.0000
  O3          0.58903      0.34422      0.99155  1.0000
  O3          0.77979      0.42244      0.65775  1.0000
  O1          0.66828      0.25436      0.32258  1.0000
  O1          0.46648      0.66672      0.52219  1.0000
  O1          0.22316      0.55404      0.19047  1.0000
  O1          0.35676      0.80349      0.86145  1.0000
  O2          0.14167      0.22667      0.97712  1.0000
  O2          0.80596      0.92853      0.30678  1.0000
  O2          0.09838      0.87582      0.64253  1.0000
  O2          0.91210      0.79060      0.48272  1.0000
  O2          0.23387      0.12263      0.81631  1.0000
  O2          0.90971      0.11447      0.14938  1.0000
  O2          0.22621      0.13496      0.37275  1.0000
  O2          0.92106      0.78978      0.03920  1.0000
  O2          0.88549      0.08456      0.70875  1.0000
  O2          0.80265      0.90642      0.86468  1.0000
  O2          0.12719      0.21986      0.53279  1.0000
  O2          0.11477      0.89291      0.19927  1.0000
  O2          0.94394      0.85937      0.25970  1.0000
  O2          0.15442      0.07455      0.59263  1.0000
  O2          0.95052      0.07644      0.92538  1.0000
  O2          0.09018      0.14906      0.75603  1.0000
  O2          0.88112      0.93925      0.09125  1.0000
  O2          0.08389      0.93717      0.42308  1.0000
  O2          0.91431      0.19701      0.99201  1.0000
  O2          0.80910      0.71978      0.32676  1.0000
  O2          0.30304      0.09891      0.66026  1.0000
  O2          0.14662      0.82629      0.48473  1.0000
  O2          0.19580      0.32061      0.81840  1.0000
  O2          0.70178      0.88681      0.15018  1.0000
  O2          0.20812      0.91184      0.35589  1.0000
  O3          0.72314      0.81586      0.02585  1.0000
  O2          0.09864      0.29149      0.68863  1.0000
  O2          0.83943      0.14152      0.86441  1.0000
  O2          0.32590      0.18375      0.53049  1.0000
  O2          0.88034      0.69139      0.19613  1.0000
  O1          0.32880      0.61600      0.26772  1.0000
  O1          0.40425      0.69888      0.60138  1.0000
  O3          0.32040      0.69638      0.93709  1.0000
  O1          0.71033      0.39728      0.74727  1.0000
  O1          0.62039      0.30282      0.08142  1.0000
  O1          0.70883      0.31093      0.41370  1.0000
  O2          0.38720      0.35356      0.97055  1.0000
  O3          0.67846      0.04412      0.30004  1.0000
  O2          0.98753      0.62882      0.63712  1.0000
  O3          0.66701      0.66531      0.48541  1.0000
  O3          0.35524      0.99906      0.81725  1.0000
  O3          0.03027      0.35818      0.14615  1.0000
  O2          0.36136      0.38204      0.37863  1.0000
  O3          0.03045      0.65550      0.03987  1.0000
  O3          0.64343      0.97982      0.70980  1.0000
  O3          0.67613      0.65974      0.86445  1.0000
  O3          0.00651      0.34457      0.53055  1.0000
  O2          0.36183      0.00911      0.19529  1.0000
  O3          0.78707      0.30642      0.01362  1.0000
  O3          0.71414      0.48688      0.34876  1.0000
  O3          0.54174      0.22673      0.68119  1.0000
  O3          0.28515      0.73545      0.51805  1.0000
  O3          0.28970      0.55148      0.85189  1.0000
  O3          0.47174      0.74336      0.18266  1.0000
  O3          0.30615      0.77453      0.33210  1.0000
  O3          0.47565      0.69946      0.00056  1.0000
  O3          0.23416      0.52490      0.66689  1.0000
  O3          0.75063      0.28093      0.82973  1.0000
  O3          0.55509      0.27489      0.49714  1.0000
  O3          0.74088      0.46063      0.16255  1.0000
  O3          0.78261      0.54239      0.03687  1.0000
  O3          0.47302      0.24677      0.36822  1.0000
  O3          0.77933      0.22738      0.70427  1.0000
  O3          0.26031      0.46902      0.53176  1.0000
  O3          0.55285      0.79180      0.86457  1.0000
  O3          0.22721      0.75620      0.20042  1.0000
  O3          0.55732      0.79838      0.31527  1.0000
  O2          0.26199      0.47763      0.97933  1.0000
  O3          0.23489      0.76509      0.64649  1.0000
  O3          0.48300      0.25352      0.81793  1.0000
  O3          0.79658      0.54129      0.48323  1.0000
  O3          0.77632      0.23048      0.15167  1.0000
  O2          0.24526      0.35313      0.90293  1.0000
  O2          0.66747      0.89062      0.23510  1.0000
  O2          0.12623      0.77470      0.56903  1.0000
  O2          0.79420      0.67030      0.41122  1.0000
  O2          0.35872      0.13398      0.74452  1.0000
  O2          0.88317      0.21728      0.07671  1.0000
  O2          0.35656      0.23550      0.44621  1.0000
  O2          0.90608      0.66169      0.11245  1.0000
  O2          0.77756      0.10917      0.78101  1.0000
  O3          0.68530      0.79758      0.93654  1.0000
  O2          0.13261      0.34154      0.60429  1.0000
  O2          0.23536      0.89334      0.27114  1.0000
  O3          0.60718      0.56637      0.98592  1.0000
  O3          0.44094      0.02149      0.32260  1.0000
  O2          0.98907      0.41182      0.65032  1.0000
  O3          0.45951      0.42439      0.50882  1.0000
  O3          0.59626      0.04006      0.84526  1.0000
  O3          0.98408      0.55403      0.17595  1.0000
  O2          0.58003      0.59788      0.36453  1.0000
  O3          0.03395      0.42426      0.02954  1.0000
  O3          0.41214      0.98054      0.69769  1.0000
  O3          0.43509      0.45081      0.84033  1.0000
  O3          0.03990      0.58558      0.50659  1.0000
  O2          0.56687      0.99077      0.17702  1.0000
  O3          0.57090      0.14751      0.24056  1.0000
  O3          0.87311      0.44203      0.57896  1.0000
  O3          0.57663      0.42750      0.91289  1.0000
  O1          0.45279      0.86155      0.77534  1.0000
  O1          0.15797      0.59437      0.10490  1.0000
  O3          0.43670      0.56917      0.43664  1.0000
  F           0.42530      0.84871      0.25004  1.0000
  F           0.17117      0.57523      0.58204  1.0000
  F           0.45519      0.59863      0.91510  1.0000
  F           0.58675      0.16312      0.76674  1.0000
  F           0.85603      0.41875      0.09758  1.0000
  F           0.60042      0.43510      0.43310  1.0000
