data_cif

_audit_creation_method             'generated by GULP'

_symmetry_space_group_name_H-M     'P 1'
_symmetry_Int_Tables_number        1
_symmetry_cell_setting             triclinic

_cell_length_a                       12.0962
_cell_length_b                       12.1327
_cell_length_c                       29.8213
_cell_angle_alpha                   89.6792
_cell_angle_beta                    90.4101
_cell_angle_gamma                  119.9379

loop_
_atom_site_label
_atom_site_fract_x
_atom_site_fract_y
_atom_site_fract_z
_atom_site_occupancy
  Ge          0.69960      0.37570      0.03389  1.0000
  Si          0.63619      0.30749      0.36589  1.0000
  Ge          0.69209      0.30954      0.70165  1.0000
  Ge          0.32261      0.63172      0.55002  1.0000
  Ge          0.38742      0.68188      0.88274  1.0000
  Si          0.32754      0.68252      0.21453  1.0000
  Ge          0.39626      0.70591      0.31724  1.0000
  Si          0.32722      0.62995      0.98052  1.0000
  Ge          0.32004      0.68600      0.64849  1.0000
  Ge          0.64118      0.30990      0.80070  1.0000
  Ge          0.69037      0.37434      0.46399  1.0000
  Ge          0.70603      0.32401      0.13302  1.0000
  Si          0.53626      0.42117      0.96496  1.0000
  Ge          0.57886      0.09021      0.29820  1.0000
  Ge          0.90484      0.47105      0.62975  1.0000
  Ge          0.49788      0.57597      0.48752  1.0000
  Ge          0.44360      0.91586      0.82331  1.0000
  Ge          0.09794      0.50948      0.15385  1.0000
  Si          0.43458      0.52998      0.38267  1.0000
  Ge          0.11319      0.57014      0.04836  1.0000
  Si          0.48191      0.89500      0.71909  1.0000
  Ge          0.58233      0.48499      0.86047  1.0000
  Ge          0.92534      0.43477      0.52337  1.0000
  Ge          0.53735      0.10109      0.19683  1.0000
  Si          0.29126      0.41457      0.85446  1.0000
  Si          0.60621      0.88041      0.19384  1.0000
  Si          0.14661      0.72418      0.52124  1.0000
  Ge          0.72038      0.59855      0.36431  1.0000
  Si          0.40353      0.10173      0.69897  1.0000
  Si          0.89840      0.28333      0.03027  1.0000
  Si          0.42551      0.28480      0.49495  1.0000
  Si          0.88452      0.59085      0.16179  1.0000
  Si          0.73436      0.13532      0.82951  1.0000
  Ge          0.61561      0.70807      0.98493  1.0000
  Si          0.11609      0.39558      0.65319  1.0000
  Si          0.30836      0.90680      0.32715  1.0000
  Si          0.25491      0.35077      0.95724  1.0000
  Si          0.68164      0.91261      0.29564  1.0000
  Si          0.11025      0.75771      0.62354  1.0000
  Si          0.78635      0.65769      0.46717  1.0000
  Si          0.35814      0.11790      0.80084  1.0000
  Si          0.89411      0.22532      0.13366  1.0000
  Si          0.36098      0.25004      0.39225  1.0000
  Si          0.91267      0.65766      0.05900  1.0000
  Si          0.76603      0.10133      0.72710  1.0000
  Si          0.67022      0.77345      0.88208  1.0000
  Si          0.12745      0.35031      0.55096  1.0000
  Si          0.25644      0.89721      0.22401  1.0000
  Si          0.98520      0.12087      0.97744  1.0000
  Si          0.89881      0.85034      0.31072  1.0000
  Si          0.15553      0.02667      0.64363  1.0000
  Si          0.05661      0.89025      0.47736  1.0000
  Si          0.12862      0.16172      0.80855  1.0000
  Si          0.85221      0.95299      0.14445  1.0000
  Si          0.13411      0.97878      0.37681  1.0000
  Si          0.86360      0.88218      0.04218  1.0000
  Si          0.03543      0.14581      0.70736  1.0000
  Si          0.89866      0.04539      0.87579  1.0000
  Si          0.17363      0.12315      0.54302  1.0000
  Si          0.97798      0.84211      0.21001  1.0000
  O2          0.95525      0.00361      0.01077  1.0000
  O2          0.01624      0.94091      0.34327  1.0000
  O2          0.06797      0.05795      0.67595  1.0000
  O2          0.08752      0.00272      0.51196  1.0000
  O2          0.01572      0.08030      0.84304  1.0000
  O2          0.94376      0.92444      0.17576  1.0000
  O3          0.35604      0.57928      0.35310  1.0000
  O3          0.43032      0.76768      0.69109  1.0000
  O3          0.24905      0.65694      0.01773  1.0000
  O1          0.67448      0.45092      0.82917  1.0000
  O1          0.56365      0.21468      0.15901  1.0000
  O1          0.80495      0.34290      0.48912  1.0000
  O3          0.58729      0.34146      0.99218  1.0000
  O1          0.76570      0.41458      0.65899  1.0000
  O3          0.66308      0.23360      0.32903  1.0000
  O1          0.46146      0.66472      0.52017  1.0000
  O3          0.23140      0.55642      0.18774  1.0000
  O1          0.35315      0.79112      0.85646  1.0000
  O2          0.13656      0.22303      0.97855  1.0000
  O2          0.80518      0.90815      0.31350  1.0000
  O2          0.09302      0.87492      0.64139  1.0000
  O2          0.90969      0.78828      0.48518  1.0000
  O2          0.22818      0.11347      0.81729  1.0000
  O2          0.90008      0.10159      0.15092  1.0000
  O2          0.23146      0.13010      0.37239  1.0000
  O2          0.91925      0.78586      0.03948  1.0000
  O2          0.88261      0.08561      0.70734  1.0000
  O2          0.80143      0.89834      0.86586  1.0000
  O2          0.12273      0.22046      0.53423  1.0000
  O2          0.12542      0.88377      0.20308  1.0000
  O2          0.95263      0.86681      0.26028  1.0000
  O2          0.15763      0.08218      0.59482  1.0000
  O2          0.94486      0.06818      0.92745  1.0000
  O2          0.08021      0.13981      0.75762  1.0000
  O2          0.86996      0.92765      0.09302  1.0000
  O2          0.08234      0.94506      0.42705  1.0000
  O2          0.90825      0.18998      0.99357  1.0000
  O3          0.82487      0.70475      0.32355  1.0000
  O2          0.29933      0.08766      0.66177  1.0000
  O2          0.14501      0.82721      0.48642  1.0000
  O2          0.19141      0.31170      0.81898  1.0000
  O2          0.70269      0.86915      0.15794  1.0000
  O2          0.20557      0.90193      0.36322  1.0000
  O3          0.71914      0.80960      0.02631  1.0000
  O2          0.10511      0.29084      0.69027  1.0000
  O2          0.83459      0.13181      0.86555  1.0000
  O2          0.32251      0.18508      0.53065  1.0000
  O2          0.89055      0.69313      0.19786  1.0000
  O3          0.33334      0.64208      0.26503  1.0000
  O1          0.40289      0.69448      0.60188  1.0000
  O3          0.31917      0.69243      0.93485  1.0000
  O1          0.70636      0.39050      0.74952  1.0000
  O1          0.62452      0.32207      0.08321  1.0000
  O3          0.68962      0.29597      0.41387  1.0000
  O2          0.38251      0.34975      0.97237  1.0000
  O3          0.69458      0.04270      0.31084  1.0000
  O3          0.98868      0.63270      0.64161  1.0000
  O3          0.66503      0.66074      0.48627  1.0000
  O3          0.35333      0.99293      0.81967  1.0000
  O3          0.01794      0.34508      0.15551  1.0000
  O2          0.35216      0.37551      0.38037  1.0000
  O3          0.04668      0.66780      0.04914  1.0000
  O2          0.63608      0.97413      0.71303  1.0000
  O3          0.67465      0.65171      0.86530  1.0000
  O3          0.99932      0.34267      0.53434  1.0000
  O3          0.36817      0.02082      0.20251  1.0000
  O3          0.76878      0.28254      0.01982  1.0000
  O3          0.71410      0.45886      0.35134  1.0000
  O3          0.53282      0.22287      0.68365  1.0000
  O3          0.28399      0.73714      0.52049  1.0000
  O3          0.28424      0.54168      0.85167  1.0000
  O2          0.47036      0.74687      0.19337  1.0000
  O3          0.31688      0.78036      0.33730  1.0000
  O3          0.47147      0.69385      0.99985  1.0000
  O3          0.23288      0.52949      0.66913  1.0000
  O3          0.74330      0.27023      0.83265  1.0000
  O3          0.55480      0.28155      0.49912  1.0000
  O3          0.75479      0.46136      0.16774  1.0000
  O3          0.80334      0.53977      0.03192  1.0000
  O2          0.48247      0.25940      0.36786  1.0000
  O3          0.77154      0.22177      0.70381  1.0000
  O3          0.25346      0.46914      0.53170  1.0000
  O3          0.55085      0.78222      0.86358  1.0000
  O2          0.26546      0.77334      0.20866  1.0000
  O3          0.55988      0.79249      0.31844  1.0000
  O2          0.25603      0.47311      0.97871  1.0000
  O3          0.23635      0.76878      0.64531  1.0000
  O3          0.47693      0.24631      0.81875  1.0000
  O3          0.79805      0.53861      0.48358  1.0000
  O3          0.76659      0.21833      0.14964  1.0000
  O2          0.24129      0.34512      0.90349  1.0000
  O2          0.67888      0.89814      0.24107  1.0000
  O2          0.11222      0.76392      0.56935  1.0000
  O3          0.79916      0.67346      0.41269  1.0000
  O2          0.34990      0.11975      0.74599  1.0000
  O2          0.90435      0.22620      0.07881  1.0000
  O2          0.35957      0.23140      0.44581  1.0000
  O2          0.88929      0.65322      0.11251  1.0000
  O2          0.78277      0.11279      0.78104  1.0000
  O3          0.68232      0.78998      0.93675  1.0000
  O2          0.13910      0.34652      0.60591  1.0000
  O2          0.24375      0.89904      0.27790  1.0000
  O3          0.60331      0.56063      0.98772  1.0000
  O3          0.44036      0.03290      0.33361  1.0000
  O3          0.98627      0.40009      0.65270  1.0000
  O3          0.44664      0.42269      0.50668  1.0000
  O3          0.59416      0.02477      0.84331  1.0000
  O3          0.00684      0.57327      0.17146  1.0000
  O3          0.57166      0.58453      0.35917  1.0000
  O3          0.01422      0.42577      0.02335  1.0000
  O2          0.42017      0.97756      0.69944  1.0000
  O3          0.43154      0.44437      0.84074  1.0000
  O3          0.04360      0.58332      0.50504  1.0000
  O3          0.58106      0.99029      0.17816  1.0000
  O1          0.60211      0.16918      0.24702  1.0000
  O1          0.86623      0.44488      0.57519  1.0000
  O3          0.57038      0.42147      0.91408  1.0000
  O3          0.44835      0.85906      0.77034  1.0000
  O1          0.15903      0.55741      0.10117  1.0000
  O3          0.44417      0.57644      0.43289  1.0000
  F           0.48287      0.93259      0.26679  1.0000
  F           0.16837      0.57517      0.58418  1.0000
  F           0.45132      0.59118      0.91502  1.0000
  F           0.58278      0.15712      0.76865  1.0000
  F           0.86044      0.41608      0.10078  1.0000
  F           0.60312      0.44373      0.43435  1.0000
