data_cif

_audit_creation_method             'generated by GULP'

_symmetry_space_group_name_H-M     'P 1'
_symmetry_Int_Tables_number        1
_symmetry_cell_setting             triclinic

_cell_length_a                       12.1863
_cell_length_b                       12.2008
_cell_length_c                       29.9047
_cell_angle_alpha                   89.2134
_cell_angle_beta                    90.3091
_cell_angle_gamma                  120.5225

loop_
_atom_site_label
_atom_site_fract_x
_atom_site_fract_y
_atom_site_fract_z
_atom_site_occupancy
  Ge          0.69960      0.37570      0.03389  1.0000
  Ge          0.65897      0.33957      0.36590  1.0000
  Si          0.69561      0.32643      0.70092  1.0000
  Ge          0.33453      0.65657      0.53050  1.0000
  Ge          0.40098      0.71424      0.86466  1.0000
  Ge          0.34163      0.70150      0.20145  1.0000
  Ge          0.41464      0.73277      0.29934  1.0000
  Si          0.33248      0.64754      0.96730  1.0000
  Ge          0.30899      0.69430      0.62887  1.0000
  Ge          0.63880      0.31972      0.80374  1.0000
  Ge          0.69404      0.40656      0.46427  1.0000
  Ge          0.73430      0.33469      0.13180  1.0000
  Si          0.53438      0.42463      0.96952  1.0000
  Ge          0.61079      0.11911      0.29982  1.0000
  Ge          0.91860      0.50345      0.63698  1.0000
  Ge          0.50737      0.60619      0.46539  1.0000
  Ge          0.44529      0.93603      0.79703  1.0000
  Ge          0.12061      0.53047      0.13407  1.0000
  Si          0.45787      0.55342      0.36193  1.0000
  Ge          0.11028      0.58522      0.02930  1.0000
  Ge          0.47726      0.90854      0.69632  1.0000
  Ge          0.59483      0.49736      0.86738  1.0000
  Ge          0.91501      0.45654      0.53079  1.0000
  Si          0.55471      0.11517      0.19639  1.0000
  Si          0.31017      0.42682      0.85017  1.0000
  Si          0.62761      0.90337      0.18835  1.0000
  Si          0.13831      0.74628      0.52173  1.0000
  Si          0.74359      0.62516      0.35394  1.0000
  Si          0.41153      0.12966      0.68737  1.0000
  Si          0.89922      0.29385      0.01980  1.0000
  Si          0.42223      0.31818      0.48573  1.0000
  Si          0.91304      0.60937      0.15248  1.0000
  Si          0.72092      0.11897      0.82053  1.0000
  Ge          0.59945      0.69901      0.97779  1.0000
  Si          0.12686      0.42266      0.65149  1.0000
  Si          0.32271      0.91239      0.32032  1.0000
  Ge          0.25536      0.35963      0.95306  1.0000
  Si          0.69727      0.92135      0.28993  1.0000
  Si          0.12261      0.79079      0.62426  1.0000
  Si          0.79385      0.68978      0.45577  1.0000
  Si          0.34881      0.11627      0.78939  1.0000
  Si          0.92232      0.24398      0.12169  1.0000
  Si          0.37508      0.27244      0.38287  1.0000
  Si          0.91091      0.66476      0.05003  1.0000
  Si          0.76298      0.11251      0.71765  1.0000
  Si          0.68570      0.78059      0.88190  1.0000
  Si          0.11607      0.37149      0.54895  1.0000
  Si          0.27289      0.91541      0.21749  1.0000
  Si          0.97782      0.12524      0.97102  1.0000
  Si          0.91966      0.87308      0.30185  1.0000
  Si          0.16624      0.06222      0.63680  1.0000
  Si          0.06452      0.91890      0.46963  1.0000
  Si          0.13542      0.18065      0.80143  1.0000
  Si          0.87158      0.97174      0.13468  1.0000
  Si          0.15560      0.99820      0.36822  1.0000
  Si          0.84672      0.87780      0.03360  1.0000
  Si          0.04078      0.17106      0.70150  1.0000
  Si          0.90264      0.05615      0.86874  1.0000
  Si          0.16922      0.15112      0.53550  1.0000
  Si          0.99918      0.86235      0.20097  1.0000
  O2          0.93457      0.00102      0.00165  1.0000
  O2          0.03959      0.95603      0.33381  1.0000
  O2          0.07653      0.08937      0.66876  1.0000
  O2          0.09161      0.03558      0.50137  1.0000
  O2          0.02267      0.10190      0.83640  1.0000
  O2          0.95775      0.93683      0.16630  1.0000
  O3          0.38091      0.59397      0.33120  1.0000
  O1          0.44511      0.79245      0.66052  1.0000
  O3          0.23648      0.67736      0.99431  1.0000
  O1          0.67932      0.45157      0.83466  1.0000
  O3          0.59697      0.23216      0.16486  1.0000
  O1          0.78907      0.36972      0.49870  1.0000
  O3          0.57731      0.33824      0.99690  1.0000
  O3          0.78204      0.44646      0.67001  1.0000
  O1          0.69481      0.25782      0.32879  1.0000
  O1          0.45299      0.69122      0.49294  1.0000
  O1          0.25702      0.58265      0.16447  1.0000
  O1          0.36141      0.80090      0.83297  1.0000
  O3          0.12652      0.22434      0.97653  1.0000
  O2          0.83199      0.93580      0.30544  1.0000
  O2          0.11238      0.91182      0.64074  1.0000
  O2          0.91372      0.82316      0.47233  1.0000
  O2          0.22706      0.12306      0.80648  1.0000
  O2          0.93734      0.12393      0.13675  1.0000
  O2          0.24693      0.15019      0.36316  1.0000
  O2          0.90760      0.78646      0.02996  1.0000
  O2          0.89050      0.11905      0.69753  1.0000
  O2          0.81125      0.90584      0.86130  1.0000
  O2          0.11184      0.24374      0.53073  1.0000
  O2          0.15160      0.92294      0.19784  1.0000
  O2          0.96442      0.87889      0.25113  1.0000
  O2          0.15433      0.09935      0.58603  1.0000
  O2          0.95248      0.08772      0.91911  1.0000
  O2          0.07754      0.15776      0.75192  1.0000
  O2          0.86902      0.92771      0.08460  1.0000
  O2          0.10488      0.96539      0.41879  1.0000
  O2          0.90176      0.19780      0.98343  1.0000
  O2          0.83978      0.72555      0.31667  1.0000
  O2          0.31465      0.13955      0.65151  1.0000
  O2          0.13930      0.84851      0.48587  1.0000
  O2          0.21417      0.33106      0.81182  1.0000
  O2          0.72598      0.90693      0.15136  1.0000
  O2          0.23096      0.92529      0.35670  1.0000
  O3          0.70294      0.80384      0.02087  1.0000
  O2          0.11952      0.31844      0.68736  1.0000
  O2          0.82724      0.12928      0.85624  1.0000
  O2          0.31767      0.22523      0.52250  1.0000
  O2          0.92644      0.71346      0.18899  1.0000
  O1          0.33068      0.63863      0.25325  1.0000
  O1          0.39953      0.70271      0.58190  1.0000
  O3          0.35442      0.71617      0.91965  1.0000
  O3          0.69945      0.37422      0.75077  1.0000
  O1          0.63946      0.32625      0.08602  1.0000
  O1          0.70866      0.32725      0.41778  1.0000
  O3          0.38201      0.35321      0.97589  1.0000
  O3          0.70030      0.04637      0.30763  1.0000
  O3          0.99874      0.66676      0.64463  1.0000
  O3          0.67073      0.69097      0.47378  1.0000
  O3          0.33438      0.98816      0.80838  1.0000
  O3          0.04286      0.36702      0.14251  1.0000
  O2          0.37295      0.39811      0.36741  1.0000
  O3          0.04615      0.68188      0.03725  1.0000
  O3          0.64628      0.98562      0.70047  1.0000
  O3          0.69991      0.65997      0.87023  1.0000
  O3          0.98455      0.36109      0.53717  1.0000
  O2          0.39961      0.04424      0.20202  1.0000
  O3          0.76288      0.28103      0.01721  1.0000
  O3          0.74979      0.49924      0.34808  1.0000
  O2          0.54911      0.26015      0.68341  1.0000
  O3          0.27238      0.75477      0.51596  1.0000
  O3          0.30544      0.55390      0.84872  1.0000
  O3          0.49996      0.76983      0.18311  1.0000
  O3          0.32613      0.78608      0.33142  1.0000
  O3          0.46352      0.70314      0.99474  1.0000
  O3          0.25154      0.55286      0.66263  1.0000
  O3          0.71462      0.24643      0.82790  1.0000
  O3          0.55051      0.32006      0.49679  1.0000
  O3          0.79132      0.47542      0.16477  1.0000
  O3          0.80381      0.53822      0.02669  1.0000
  O3          0.49365      0.27099      0.36165  1.0000
  O2          0.75273      0.23213      0.69819  1.0000
  O3          0.23068      0.49297      0.52440  1.0000
  O3          0.56133      0.76495      0.85755  1.0000
  O3          0.27103      0.79549      0.19654  1.0000
  O3          0.58186      0.79613      0.31110  1.0000
  O3          0.24934      0.49129      0.96901  1.0000
  O3          0.24913      0.79993      0.64243  1.0000
  O3          0.47435      0.23917      0.80882  1.0000
  O3          0.80323      0.57410      0.47637  1.0000
  O3          0.79368      0.22784      0.14100  1.0000
  O3          0.25236      0.34569      0.89588  1.0000
  O2          0.69946      0.91938      0.23541  1.0000
  O2          0.11678      0.79330      0.56963  1.0000
  O2          0.79964      0.69490      0.40115  1.0000
  O2          0.34532      0.12096      0.73490  1.0000
  O2          0.92947      0.24875      0.06714  1.0000
  O2          0.36587      0.25597      0.43683  1.0000
  O2          0.89570      0.66263      0.10411  1.0000
  O2          0.78037      0.12063      0.77141  1.0000
  O3          0.69355      0.80429      0.93473  1.0000
  O2          0.13591      0.37007      0.60262  1.0000
  O2          0.25865      0.90645      0.27154  1.0000
  O3          0.60623      0.56276      0.99275  1.0000
  O3          0.46221      0.03672      0.32508  1.0000
  O3          0.99943      0.43090      0.65697  1.0000
  O3          0.43728      0.45667      0.49036  1.0000
  O3          0.58851      0.99408      0.83043  1.0000
  O3          0.04179      0.60297      0.15554  1.0000
  O2          0.59906      0.59021      0.34447  1.0000
  O3          0.00379      0.43873      0.00700  1.0000
  O3          0.43074      0.01500      0.67583  1.0000
  O3          0.45295      0.45805      0.84093  1.0000
  O3          0.03040      0.60436      0.50999  1.0000
  O2          0.59089      0.01142      0.17913  1.0000
  O3          0.61481      0.16400      0.24534  1.0000
  O1          0.86659      0.47008      0.58358  1.0000
  O3          0.57469      0.42137      0.91839  1.0000
  O1          0.41733      0.84882      0.74825  1.0000
  O1          0.16755      0.56835      0.07962  1.0000
  O3          0.46993      0.61236      0.41077  1.0000
  F           0.46774      0.87743      0.26173  1.0000
  F           0.16099      0.60540      0.59299  1.0000
  F           0.48598      0.58653      0.92715  1.0000
  F           0.54139      0.08871      0.76256  1.0000
  F           0.88022      0.43026      0.09409  1.0000
  F           0.60724      0.46310      0.42701  1.0000
