data_cif

_audit_creation_method             'generated by GULP'

_symmetry_space_group_name_H-M     'P 1'
_symmetry_Int_Tables_number        1
_symmetry_cell_setting             triclinic

_cell_length_a                       12.1486
_cell_length_b                       12.1769
_cell_length_c                       29.9724
_cell_angle_alpha                   88.5614
_cell_angle_beta                    90.8821
_cell_angle_gamma                  120.0712

loop_
_atom_site_label
_atom_site_fract_x
_atom_site_fract_y
_atom_site_fract_z
_atom_site_occupancy
  Ge          0.69960      0.37570      0.03389  1.0000
  Ge          0.64437      0.31520      0.36904  1.0000
  Si          0.68624      0.30009      0.70051  1.0000
  Ge          0.31807      0.62845      0.52988  1.0000
  Ge          0.39797      0.68340      0.86144  1.0000
  Ge          0.32270      0.68449      0.19748  1.0000
  Ge          0.39838      0.71060      0.29648  1.0000
  Si          0.33095      0.62483      0.96492  1.0000
  Ge          0.29961      0.66731      0.62819  1.0000
  Ge          0.62832      0.28873      0.80293  1.0000
  Ge          0.67695      0.38395      0.46678  1.0000
  Ge          0.72117      0.32290      0.13833  1.0000
  Ge          0.52522      0.42337      0.96704  1.0000
  Ge          0.59524      0.09400      0.30440  1.0000
  Ge          0.91054      0.48143      0.63883  1.0000
  Ge          0.48925      0.58173      0.46348  1.0000
  Ge          0.43756      0.90554      0.79405  1.0000
  Ge          0.10650      0.52085      0.12694  1.0000
  Si          0.44148      0.52934      0.36011  1.0000
  Ge          0.11447      0.57905      0.02726  1.0000
  Ge          0.46987      0.88256      0.69364  1.0000
  Ge          0.59439      0.46612      0.86862  1.0000
  Ge          0.89960      0.43394      0.53309  1.0000
  Si          0.54117      0.10151      0.20157  1.0000
  Si          0.30671      0.39541      0.85213  1.0000
  Si          0.61329      0.89065      0.18858  1.0000
  Si          0.12243      0.72108      0.52329  1.0000
  Si          0.72804      0.59989      0.35509  1.0000
  Si          0.40357      0.10484      0.68646  1.0000
  Si          0.89983      0.28967      0.01948  1.0000
  Si          0.40401      0.29459      0.48612  1.0000
  Si          0.92197      0.60748      0.15257  1.0000
  Si          0.71076      0.08621      0.81900  1.0000
  Ge          0.61097      0.69992      0.98629  1.0000
  Si          0.11854      0.39779      0.65276  1.0000
  Si          0.30711      0.88816      0.32206  1.0000
  Si          0.24892      0.33778      0.95378  1.0000
  Si          0.68070      0.89617      0.29004  1.0000
  Si          0.11386      0.76680      0.62563  1.0000
  Si          0.77672      0.66688      0.45648  1.0000
  Si          0.33925      0.08541      0.78826  1.0000
  Si          0.92693      0.24241      0.12093  1.0000
  Si          0.35956      0.24878      0.38330  1.0000
  Si          0.91905      0.66209      0.04956  1.0000
  Si          0.75415      0.08542      0.71640  1.0000
  Si          0.68114      0.74799      0.88380  1.0000
  Si          0.10003      0.34597      0.55055  1.0000
  Si          0.26101      0.90297      0.21940  1.0000
  Si          0.97062      0.11714      0.97096  1.0000
  Si          0.90451      0.84837      0.30405  1.0000
  Si          0.15672      0.03815      0.63765  1.0000
  Si          0.04741      0.89496      0.47082  1.0000
  Si          0.12600      0.14953      0.80354  1.0000
  Si          0.86205      0.96484      0.13804  1.0000
  Si          0.14103      0.97441      0.36995  1.0000
  Si          0.85653      0.88123      0.03776  1.0000
  Si          0.03308      0.14623      0.70317  1.0000
  Si          0.89363      0.02629      0.87054  1.0000
  Si          0.15234      0.12565      0.53642  1.0000
  Si          0.98791      0.84993      0.20346  1.0000
  O2          0.94303      0.00378      0.00603  1.0000
  O2          0.02253      0.93164      0.33651  1.0000
  O2          0.07073      0.06541      0.67113  1.0000
  O2          0.07378      0.01028      0.50276  1.0000
  O2          0.01679      0.07180      0.83987  1.0000
  O2          0.94391      0.93002      0.17223  1.0000
  O3          0.36592      0.56972      0.32807  1.0000
  O1          0.43898      0.76795      0.65781  1.0000
  O3          0.23388      0.65829      0.98817  1.0000
  O1          0.67331      0.42248      0.83243  1.0000
  O3          0.58801      0.22463      0.17092  1.0000
  O1          0.77165      0.34710      0.50204  1.0000
  O1          0.57150      0.33468      0.00287  1.0000
  O3          0.77315      0.42285      0.67104  1.0000
  O1          0.68048      0.23026      0.33374  1.0000
  O1          0.43172      0.66441      0.49064  1.0000
  O1          0.24569      0.57389      0.15968  1.0000
  O1          0.35601      0.76782      0.82918  1.0000
  O2          0.11927      0.22003      0.97342  1.0000
  O2          0.81517      0.90989      0.30615  1.0000
  O2          0.10487      0.88827      0.64210  1.0000
  O2          0.89644      0.80048      0.47231  1.0000
  O2          0.21555      0.08816      0.80568  1.0000
  O2          0.92547      0.11568      0.13929  1.0000
  O2          0.23266      0.12575      0.36383  1.0000
  O2          0.90728      0.78250      0.03108  1.0000
  O2          0.88321      0.09407      0.69713  1.0000
  O2          0.80682      0.87549      0.86479  1.0000
  O2          0.09329      0.21760      0.53211  1.0000
  O2          0.14042      0.91380      0.20001  1.0000
  O2          0.95238      0.85452      0.25422  1.0000
  O2          0.13985      0.07395      0.58703  1.0000
  O2          0.93452      0.06117      0.92171  1.0000
  O2          0.06510      0.13241      0.75446  1.0000
  O2          0.87367      0.92216      0.08904  1.0000
  O2          0.09198      0.94413      0.42057  1.0000
  O2          0.89289      0.18786      0.98329  1.0000
  O2          0.82562      0.70051      0.31840  1.0000
  O2          0.30624      0.11605      0.65069  1.0000
  O2          0.12139      0.82326      0.48753  1.0000
  O2          0.20800      0.29787      0.81521  1.0000
  O2          0.71398      0.89941      0.15129  1.0000
  O2          0.21504      0.89954      0.35852  1.0000
  O3          0.71083      0.81612      0.02433  1.0000
  O2          0.11223      0.29359      0.68897  1.0000
  O2          0.81722      0.09661      0.85488  1.0000
  O2          0.29977      0.20089      0.52259  1.0000
  O2          0.91747      0.70454      0.18804  1.0000
  O1          0.31668      0.62283      0.24988  1.0000
  O1          0.38625      0.67208      0.58089  1.0000
  O3          0.36018      0.68965      0.91671  1.0000
  O3          0.69043      0.34412      0.75049  1.0000
  O1          0.65838      0.33718      0.08932  1.0000
  O1          0.69369      0.30435      0.42121  1.0000
  O3          0.35968      0.32390      0.97683  1.0000
  O3          0.68455      0.01994      0.30953  1.0000
  O3          0.99191      0.64386      0.64708  1.0000
  O3          0.65218      0.66825      0.47278  1.0000
  O3          0.32652      0.95671      0.80660  1.0000
  O3          0.05262      0.35783      0.14012  1.0000
  O2          0.35746      0.37409      0.36633  1.0000
  O3          0.05210      0.68072      0.03314  1.0000
  O3          0.63884      0.95906      0.69891  1.0000
  O3          0.69936      0.63011      0.87307  1.0000
  O3          0.96777      0.33655      0.54018  1.0000
  O2          0.38740      0.03387      0.20465  1.0000
  O3          0.76575      0.28213      0.01920  1.0000
  O3          0.73462      0.47361      0.35011  1.0000
  O2          0.53961      0.23590      0.68312  1.0000
  O3          0.25622      0.72923      0.51715  1.0000
  O3          0.30358      0.52341      0.84679  1.0000
  O3          0.48586      0.76178      0.18149  1.0000
  O3          0.30876      0.75969      0.33038  1.0000
  O3          0.46144      0.68336      0.99320  1.0000
  O3          0.24421      0.52722      0.66288  1.0000
  O3          0.70067      0.21092      0.82755  1.0000
  O3          0.53261      0.29671      0.49821  1.0000
  O3          0.80060      0.46962      0.16375  1.0000
  O3          0.81168      0.53558      0.02705  1.0000
  O3          0.47937      0.24682      0.36355  1.0000
  O2          0.74273      0.20495      0.69667  1.0000
  O3          0.21204      0.46582      0.52477  1.0000
  O3          0.55666      0.72552      0.85716  1.0000
  O3          0.26172      0.78836      0.19668  1.0000
  O3          0.56522      0.76927      0.30936  1.0000
  O2          0.25494      0.46934      0.96693  1.0000
  O3          0.24175      0.77492      0.64247  1.0000
  O3          0.46402      0.20751      0.80772  1.0000
  O3          0.78525      0.55127      0.47848  1.0000
  O3          0.80094      0.23878      0.13934  1.0000
  O2          0.24946      0.32483      0.90003  1.0000
  O2          0.68458      0.90036      0.23556  1.0000
  O2          0.10241      0.76760      0.57117  1.0000
  O2          0.78318      0.66966      0.40207  1.0000
  O2          0.33617      0.09250      0.73385  1.0000
  O2          0.92685      0.23865      0.06664  1.0000
  O2          0.34931      0.23368      0.43719  1.0000
  O2          0.90661      0.66007      0.10347  1.0000
  O2          0.77143      0.09232      0.77009  1.0000
  O3          0.68095      0.77521      0.93590  1.0000
  O2          0.12498      0.34486      0.60393  1.0000
  O2          0.24672      0.89184      0.27324  1.0000
  O1          0.60897      0.56294      0.99939  1.0000
  O3          0.44694      0.01025      0.32891  1.0000
  O3          0.99171      0.40750      0.65859  1.0000
  O3          0.41909      0.43335      0.48970  1.0000
  O3          0.58032      0.95881      0.82779  1.0000
  O3          0.05095      0.60609      0.15928  1.0000
  O2          0.58388      0.56529      0.34454  1.0000
  O3          0.00869      0.43049      0.00573  1.0000
  O3          0.42485      0.99198      0.67397  1.0000
  O3          0.44699      0.42026      0.84348  1.0000
  O3          0.01460      0.58006      0.51142  1.0000
  O2          0.58493      0.00695      0.18132  1.0000
  O3          0.59911      0.14664      0.25033  1.0000
  O1          0.85588      0.45121      0.58574  1.0000
  O1          0.58737      0.39460      0.91887  1.0000
  O1          0.40923      0.82060      0.74519  1.0000
  O1          0.18681      0.57885      0.07619  1.0000
  O3          0.45171      0.58750      0.40882  1.0000
  F           0.45469      0.86160      0.26273  1.0000
  F           0.14917      0.58023      0.59395  1.0000
  F           0.48559      0.52965      0.92794  1.0000
  F           0.53274      0.05907      0.76084  1.0000
  F           0.94975      0.46302      0.09308  1.0000
  F           0.59084      0.44025      0.42823  1.0000
