data_cif

_audit_creation_method             'generated by GULP'

_symmetry_space_group_name_H-M     'P 1'
_symmetry_Int_Tables_number        1
_symmetry_cell_setting             triclinic

_cell_length_a                       12.1643
_cell_length_b                       12.1584
_cell_length_c                       29.8754
_cell_angle_alpha                   90.1266
_cell_angle_beta                    90.0707
_cell_angle_gamma                  120.0356

loop_
_atom_site_label
_atom_site_fract_x
_atom_site_fract_y
_atom_site_fract_z
_atom_site_occupancy
  Ge          0.69960      0.37570      0.03389  1.0000
  Ge          0.66898      0.34381      0.36723  1.0000
  Ge          0.70048      0.34075      0.70060  1.0000
  Ge          0.34413      0.66669      0.53497  1.0000
  Ge          0.37877      0.69856      0.86767  1.0000
  Si          0.33810      0.68861      0.20035  1.0000
  Ge          0.41687      0.73408      0.29721  1.0000
  Ge          0.34444      0.62773      0.96530  1.0000
  Ge          0.30763      0.70561      0.63304  1.0000
  Ge          0.63200      0.30705      0.79930  1.0000
  Ge          0.70878      0.41944      0.46518  1.0000
  Ge          0.73052      0.33430      0.13216  1.0000
  Si          0.52405      0.41910      0.96919  1.0000
  Ge          0.61725      0.11891      0.30044  1.0000
  Ge          0.92087      0.51236      0.63313  1.0000
  Ge          0.51737      0.61812      0.46753  1.0000
  Ge          0.43062      0.92171      0.80122  1.0000
  Ge          0.11778      0.51922      0.13667  1.0000
  Ge          0.47055      0.56373      0.36140  1.0000
  Ge          0.12091      0.56883      0.03060  1.0000
  Si          0.48465      0.92471      0.69749  1.0000
  Ge          0.57324      0.47247      0.86498  1.0000
  Si          0.92776      0.46210      0.52952  1.0000
  Si          0.55947      0.11848      0.19672  1.0000
  Si          0.28653      0.41075      0.85606  1.0000
  Ge          0.62174      0.89642      0.18777  1.0000
  Si          0.14179      0.74875      0.52149  1.0000
  Si          0.75775      0.62924      0.35429  1.0000
  Si          0.41428      0.14005      0.68926  1.0000
  Si          0.89497      0.28378      0.02111  1.0000
  Si          0.43609      0.32946      0.48633  1.0000
  Si          0.91407      0.60625      0.15387  1.0000
  Si          0.71943      0.12325      0.82077  1.0000
  Si          0.61354      0.70754      0.98628  1.0000
  Si          0.12652      0.43205      0.65397  1.0000
  Si          0.32822      0.91573      0.32117  1.0000
  Si          0.24278      0.34411      0.95810  1.0000
  Si          0.70122      0.91661      0.29005  1.0000
  Si          0.12023      0.79878      0.62303  1.0000
  Si          0.80196      0.70021      0.45632  1.0000
  Si          0.34790      0.12525      0.79118  1.0000
  Si          0.91299      0.23505      0.12351  1.0000
  Si          0.38563      0.27901      0.38387  1.0000
  Si          0.92232      0.65722      0.05135  1.0000
  Si          0.76604      0.12251      0.71766  1.0000
  Si          0.66224      0.75987      0.88387  1.0000
  Si          0.12769      0.38231      0.55110  1.0000
  Ge          0.27836      0.91134      0.21732  1.0000
  Si          0.97400      0.11375      0.97027  1.0000
  Si          0.93015      0.87501      0.30332  1.0000
  Si          0.16859      0.06985      0.63659  1.0000
  Si          0.07168      0.92494      0.47020  1.0000
  Si          0.11777      0.16505      0.80354  1.0000
  Si          0.86743      0.96240      0.13528  1.0000
  Si          0.16465      0.00461      0.36972  1.0000
  Si          0.86889      0.87589      0.03485  1.0000
  Si          0.03976      0.17739      0.70232  1.0000
  Si          0.88467      0.03452      0.86914  1.0000
  Si          0.18246      0.16293      0.53574  1.0000
  Si          0.00193      0.86142      0.20139  1.0000
  O2          0.94213      0.99168      0.00028  1.0000
  O2          0.04941      0.96449      0.33491  1.0000
  O2          0.08244      0.10352      0.66815  1.0000
  O2          0.10604      0.04389      0.50256  1.0000
  O2          0.99832      0.07156      0.83407  1.0000
  O2          0.95301      0.93253      0.16861  1.0000
  O1          0.38127      0.59740      0.32826  1.0000
  O3          0.44335      0.80773      0.66638  1.0000
  O1          0.24617      0.66106      0.99904  1.0000
  O1          0.66510      0.43634      0.83448  1.0000
  O3          0.59820      0.23809      0.16714  1.0000
  O3          0.81209      0.38583      0.49799  1.0000
  O3          0.57459      0.34308      0.99811  1.0000
  O1          0.78271      0.45803      0.66273  1.0000
  O1          0.70190      0.25741      0.32995  1.0000
  O1          0.46437      0.70136      0.49845  1.0000
  O3          0.25351      0.56969      0.16874  1.0000
  O1          0.34491      0.78328      0.83024  1.0000
  O2          0.12442      0.21034      0.97537  1.0000
  O2          0.83371      0.92855      0.30723  1.0000
  O2          0.10487      0.91839      0.63873  1.0000
  O2          0.92064      0.83539      0.47258  1.0000
  O2          0.21483      0.11248      0.80734  1.0000
  O2          0.92103      0.11266      0.14015  1.0000
  O2          0.25810      0.15495      0.36461  1.0000
  O2          0.93000      0.78582      0.03124  1.0000
  O2          0.88793      0.11623      0.69797  1.0000
  O2          0.79034      0.88401      0.86530  1.0000
  O2          0.12169      0.25391      0.53158  1.0000
  O3          0.14982      0.91780      0.19407  1.0000
  O2          0.97693      0.88323      0.25266  1.0000
  O2          0.16755      0.11459      0.58635  1.0000
  O2          0.94042      0.07139      0.91897  1.0000
  O2          0.07412      0.15950      0.75254  1.0000
  O2          0.88644      0.93092      0.08459  1.0000
  O2          0.11241      0.97321      0.41991  1.0000
  O2          0.89539      0.18186      0.98551  1.0000
  O2          0.85987      0.72828      0.31838  1.0000
  O2          0.31464      0.13642      0.65229  1.0000
  O2          0.13921      0.84508      0.48439  1.0000
  O2          0.18486      0.31056      0.81995  1.0000
  O3          0.72057      0.88727      0.14720  1.0000
  O2          0.23951      0.92969      0.35895  1.0000
  O2          0.71981      0.79450      0.02309  1.0000
  O2          0.11239      0.32639      0.69043  1.0000
  O2          0.81144      0.11007      0.85713  1.0000
  O2          0.33060      0.23804      0.52289  1.0000
  O2          0.92727      0.71084      0.19068  1.0000
  O3          0.32560      0.64148      0.25078  1.0000
  O1          0.40392      0.71935      0.58696  1.0000
  O1          0.33246      0.71420      0.91963  1.0000
  O1          0.71199      0.40240      0.75252  1.0000
  O1          0.63741      0.32578      0.08566  1.0000
  O1          0.71556      0.33083      0.41967  1.0000
  O2          0.37074      0.34645      0.97568  1.0000
  O3          0.69838      0.03765      0.31052  1.0000
  O3          0.99402      0.67557      0.64026  1.0000
  O3          0.68008      0.69985      0.47671  1.0000
  O3          0.34515      0.99938      0.80894  1.0000
  O3          0.03493      0.35611      0.14471  1.0000
  O3          0.37536      0.39924      0.37078  1.0000
  O3          0.05178      0.66459      0.03949  1.0000
  O2          0.63969      0.99524      0.70208  1.0000
  O3          0.66853      0.63852      0.86922  1.0000
  O2          0.00006      0.37956      0.53503  1.0000
  O3          0.40773      0.05548      0.20550  1.0000
  O3          0.76135      0.27859      0.01654  1.0000
  O3          0.76738      0.50340      0.35139  1.0000
  O3          0.54153      0.27214      0.68297  1.0000
  O3          0.27453      0.75465      0.51581  1.0000
  O3          0.28192      0.53863      0.85093  1.0000
  O3          0.48545      0.74953      0.18493  1.0000
  O3          0.33999      0.79415      0.33249  1.0000
  O3          0.48680      0.70743      0.99853  1.0000
  O3          0.25270      0.56211      0.66504  1.0000
  O3          0.71962      0.25117      0.83136  1.0000
  O3          0.56769      0.33815      0.49866  1.0000
  O3          0.78920      0.47621      0.16520  1.0000
  O3          0.80417      0.53754      0.02789  1.0000
  O3          0.50594      0.28265      0.36067  1.0000
  O3          0.76878      0.24398      0.69674  1.0000
  O3          0.24936      0.50128      0.53050  1.0000
  O3          0.54252      0.76034      0.86189  1.0000
  O3          0.28572      0.78738      0.19262  1.0000
  O3          0.58361      0.78828      0.30816  1.0000
  O3          0.23426      0.45958      0.97859  1.0000
  O3          0.24412      0.80897      0.64464  1.0000
  O3          0.46427      0.24956      0.81176  1.0000
  O3          0.81581      0.58624      0.47552  1.0000
  O3          0.78558      0.22331      0.14219  1.0000
  O2          0.23441      0.33918      0.90364  1.0000
  O3          0.71007      0.92134      0.23584  1.0000
  O2          0.12610      0.80540      0.56847  1.0000
  O2          0.80285      0.70439      0.40164  1.0000
  O2          0.34472      0.12729      0.73655  1.0000
  O2          0.91810      0.23554      0.06884  1.0000
  O2          0.38328      0.26039      0.43789  1.0000
  O2          0.90318      0.66104      0.10514  1.0000
  O2          0.78072      0.12790      0.77162  1.0000
  O2          0.66805      0.77520      0.93812  1.0000
  O2          0.13320      0.37461      0.60518  1.0000
  O3          0.25267      0.89544      0.27436  1.0000
  O2          0.59216      0.56415      0.98825  1.0000
  O3          0.46493      0.04433      0.32226  1.0000
  O3          0.00258      0.44675      0.65869  1.0000
  O3          0.44409      0.46551      0.48921  1.0000
  O3          0.57947      0.00118      0.82605  1.0000
  O3          0.04038      0.59490      0.15779  1.0000
  O3          0.61579      0.59111      0.34085  1.0000
  O3          0.00300      0.42472      0.00881  1.0000
  O2          0.44779      0.02929      0.68036  1.0000
  O3          0.42683      0.44042      0.84418  1.0000
  O2          0.03185      0.60396      0.51260  1.0000
  O3          0.58101      0.00831      0.17472  1.0000
  O3          0.63044      0.15803      0.24490  1.0000
  O3          0.87739      0.47070      0.57870  1.0000
  O3          0.55653      0.40974      0.91835  1.0000
  O3          0.42657      0.87706      0.74675  1.0000
  O1          0.16821      0.54984      0.08294  1.0000
  O1          0.48685      0.63298      0.41322  1.0000
  F           0.47487      0.88008      0.26086  1.0000
  F           0.16499      0.61400      0.59508  1.0000
  F           0.42540      0.57082      0.92666  1.0000
  F           0.57451      0.16378      0.76247  1.0000
  F           0.87622      0.42374      0.09504  1.0000
  F           0.61763      0.47207      0.42724  1.0000
