data_cif

_audit_creation_method             'generated by GULP'

_symmetry_space_group_name_H-M     'P 1'
_symmetry_Int_Tables_number        1
_symmetry_cell_setting             triclinic

_cell_length_a                       12.1743
_cell_length_b                       12.1446
_cell_length_c                       29.9035
_cell_angle_alpha                   90.2258
_cell_angle_beta                    89.4734
_cell_angle_gamma                  120.0397

loop_
_atom_site_label
_atom_site_fract_x
_atom_site_fract_y
_atom_site_fract_z
_atom_site_occupancy
  Ge          0.69960      0.37570      0.03389  1.0000
  Ge          0.64616      0.34762      0.36686  1.0000
  Ge          0.71650      0.31895      0.69986  1.0000
  Ge          0.34733      0.63941      0.53780  1.0000
  Ge          0.40569      0.68951      0.87445  1.0000
  Ge          0.34656      0.70068      0.20760  1.0000
  Ge          0.42082      0.74052      0.30550  1.0000
  Si          0.34253      0.62293      0.97717  1.0000
  Ge          0.32085      0.68380      0.64259  1.0000
  Ge          0.64811      0.29828      0.79993  1.0000
  Si          0.71518      0.39275      0.46998  1.0000
  Ge          0.73322      0.33728      0.13304  1.0000
  Ge          0.53763      0.42882      0.96449  1.0000
  Ge          0.61074      0.12803      0.30093  1.0000
  Ge          0.93546      0.48547      0.62990  1.0000
  Ge          0.52059      0.59048      0.47134  1.0000
  Ge          0.44925      0.91489      0.81098  1.0000
  Ge          0.12071      0.52668      0.14271  1.0000
  Si          0.44695      0.56157      0.37349  1.0000
  Ge          0.11572      0.57308      0.03722  1.0000
  Si          0.49617      0.90019      0.70802  1.0000
  Si          0.61111      0.47374      0.86559  1.0000
  Ge          0.93324      0.43507      0.53014  1.0000
  Si          0.55564      0.11736      0.19738  1.0000
  Ge          0.32179      0.40247      0.85763  1.0000
  Si          0.62867      0.90267      0.19138  1.0000
  Si          0.14699      0.72515      0.52243  1.0000
  Si          0.73269      0.63290      0.35899  1.0000
  Si          0.42623      0.11404      0.69318  1.0000
  Si          0.90047      0.28628      0.02581  1.0000
  Ge          0.43543      0.31617      0.49135  1.0000
  Si          0.91230      0.60827      0.15773  1.0000
  Si          0.73801      0.11797      0.82512  1.0000
  Ge          0.62456      0.70163      0.99195  1.0000
  Si          0.11892      0.39725      0.65645  1.0000
  Si          0.32656      0.92270      0.32316  1.0000
  Si          0.25970      0.33596      0.96004  1.0000
  Si          0.70053      0.93080      0.29262  1.0000
  Si          0.11548      0.76452      0.62401  1.0000
  Si          0.79665      0.68091      0.46030  1.0000
  Si          0.36503      0.11385      0.79486  1.0000
  Si          0.91958      0.24231      0.12792  1.0000
  Si          0.36452      0.27774      0.38862  1.0000
  Si          0.92004      0.66012      0.05485  1.0000
  Si          0.77759      0.09907      0.72237  1.0000
  Si          0.68780      0.75322      0.88844  1.0000
  Si          0.12701      0.35074      0.55333  1.0000
  Si          0.27615      0.91633      0.22059  1.0000
  Si          0.98168      0.11799      0.97572  1.0000
  Si          0.91812      0.87826      0.30775  1.0000
  Si          0.17834      0.04065      0.64193  1.0000
  Si          0.07553      0.90050      0.47452  1.0000
  Si          0.13657      0.15655      0.80736  1.0000
  Si          0.87810      0.97405      0.14245  1.0000
  Si          0.15301      0.00102      0.37409  1.0000
  Si          0.86977      0.88459      0.04214  1.0000
  Si          0.04913      0.14974      0.70698  1.0000
  Si          0.90296      0.03095      0.87451  1.0000
  Si          0.18949      0.13189      0.54162  1.0000
  Si          0.00190      0.86222      0.20760  1.0000
  O2          0.95225      0.00134      0.00841  1.0000
  O2          0.03090      0.95398      0.34269  1.0000
  O2          0.09361      0.07204      0.67538  1.0000
  O2          0.10359      0.01201      0.50961  1.0000
  O2          0.02358      0.07341      0.84217  1.0000
  O2          0.95995      0.94188      0.17635  1.0000
  O3          0.37866      0.60775      0.34099  1.0000
  O3          0.44805      0.77722      0.67790  1.0000
  O3          0.24817      0.65643      0.00364  1.0000
  O3          0.68753      0.43768      0.83207  1.0000
  O3          0.59363      0.23080      0.16526  1.0000
  O3          0.81281      0.35683      0.49139  1.0000
  O1          0.58895      0.33852      0.99558  1.0000
  O1          0.79424      0.43031      0.66142  1.0000
  O1          0.68940      0.26693      0.33133  1.0000
  O1          0.47410      0.67999      0.50627  1.0000
  O1          0.25556      0.57584      0.17311  1.0000
  O1          0.36715      0.78447      0.84491  1.0000
  O2          0.12997      0.21935      0.98033  1.0000
  O2          0.83736      0.94981      0.30745  1.0000
  O2          0.11558      0.88959      0.64269  1.0000
  O2          0.92732      0.79755      0.47875  1.0000
  O2          0.23430      0.10457      0.81227  1.0000
  O2          0.93590      0.12458      0.14507  1.0000
  O2          0.23574      0.15385      0.36954  1.0000
  O2          0.91851      0.78394      0.03514  1.0000
  O2          0.89719      0.08766      0.70275  1.0000
  O2          0.81388      0.87933      0.86897  1.0000
  O2          0.14115      0.23274      0.53448  1.0000
  O2          0.15268      0.91958      0.20136  1.0000
  O2          0.97368      0.87797      0.25903  1.0000
  O2          0.16961      0.08762      0.59289  1.0000
  O2          0.94869      0.06657      0.92534  1.0000
  O2          0.08188      0.13647      0.75760  1.0000
  O2          0.89415      0.93399      0.09283  1.0000
  O2          0.10847      0.95897      0.42495  1.0000
  O2          0.90160      0.18584      0.98952  1.0000
  O2          0.82572      0.73202      0.32150  1.0000
  O2          0.32513      0.10545      0.65603  1.0000
  O2          0.15377      0.82908      0.48605  1.0000
  O3          0.21177      0.30464      0.81779  1.0000
  O2          0.72852      0.90370      0.15457  1.0000
  O2          0.23357      0.93542      0.35931  1.0000
  O3          0.72285      0.81687      0.03074  1.0000
  O2          0.12099      0.29739      0.69237  1.0000
  O2          0.83058      0.10622      0.86117  1.0000
  O3          0.33537      0.19547      0.52873  1.0000
  O2          0.92393      0.71421      0.19402  1.0000
  O1          0.34149      0.64266      0.25948  1.0000
  O1          0.38706      0.67576      0.59362  1.0000
  O3          0.36882      0.69393      0.92999  1.0000
  O1          0.72492      0.38292      0.75162  1.0000
  O1          0.64304      0.33310      0.08748  1.0000
  O3          0.69065      0.33606      0.42032  1.0000
  O3          0.37444      0.32565      0.97952  1.0000
  O3          0.70303      0.05817      0.30880  1.0000
  O3          0.98961      0.64797      0.64316  1.0000
  O3          0.68528      0.69382      0.48242  1.0000
  O3          0.35966      0.98825      0.81479  1.0000
  O3          0.03912      0.36343      0.14976  1.0000
  O2          0.35889      0.40440      0.37677  1.0000
  O3          0.05537      0.67518      0.04249  1.0000
  O2          0.64986      0.96798      0.70944  1.0000
  O2          0.69728      0.62974      0.87461  1.0000
  O3          0.99491      0.33248      0.53599  1.0000
  O2          0.40056      0.04338      0.20353  1.0000
  O3          0.76743      0.27756      0.02237  1.0000
  O3          0.73566      0.50495      0.35029  1.0000
  O3          0.55404      0.24151      0.68401  1.0000
  O3          0.28131      0.73404      0.52297  1.0000
  O1          0.31252      0.53840      0.85520  1.0000
  O3          0.50204      0.76900      0.18625  1.0000
  O3          0.33185      0.79855      0.33565  1.0000
  O3          0.47436      0.68131      0.00338  1.0000
  O3          0.24064      0.53427      0.66744  1.0000
  O3          0.73909      0.24755      0.83272  1.0000
  O3          0.58274      0.32591      0.49710  1.0000
  O3          0.78740      0.47674      0.16796  1.0000
  O3          0.81432      0.53791      0.03016  1.0000
  O3          0.48439      0.28472      0.36304  1.0000
  O3          0.77570      0.21349      0.69872  1.0000
  O3          0.23497      0.47972      0.53167  1.0000
  O3          0.56606      0.74709      0.86571  1.0000
  O3          0.27402      0.79308      0.20133  1.0000
  O3          0.58799      0.80812      0.31572  1.0000
  O2          0.26345      0.46764      0.97504  1.0000
  O3          0.24096      0.76771      0.64267  1.0000
  O3          0.48162      0.24016      0.81332  1.0000
  O2          0.79103      0.54835      0.47387  1.0000
  O3          0.78976      0.22795      0.14513  1.0000
  O3          0.25419      0.31915      0.90641  1.0000
  O2          0.70055      0.92050      0.23827  1.0000
  O2          0.11701      0.77214      0.56960  1.0000
  O2          0.79661      0.69632      0.40631  1.0000
  O2          0.35815      0.10949      0.74036  1.0000
  O2          0.92893      0.24159      0.07334  1.0000
  O3          0.36121      0.24781      0.44070  1.0000
  O2          0.90371      0.66315      0.10879  1.0000
  O2          0.79539      0.11232      0.77604  1.0000
  O3          0.69054      0.77745      0.94123  1.0000
  O2          0.13491      0.34656      0.60743  1.0000
  O2          0.26289      0.91372      0.27456  1.0000
  O1          0.62422      0.56421      0.99978  1.0000
  O3          0.46405      0.04891      0.32729  1.0000
  O3          0.99051      0.39929      0.66293  1.0000
  O1          0.43782      0.45198      0.50582  1.0000
  O3          0.59867      0.99637      0.83389  1.0000
  O3          0.03944      0.59949      0.16318  1.0000
  O2          0.58894      0.60183      0.35398  1.0000
  O3          0.01076      0.42903      0.01355  1.0000
  O2          0.45056      0.99466      0.68796  1.0000
  O3          0.47456      0.44429      0.84504  1.0000
  O3          0.03961      0.58459      0.50829  1.0000
  O2          0.59376      0.01192      0.18180  1.0000
  O3          0.61390      0.17034      0.24655  1.0000
  O1          0.85819      0.43151      0.57869  1.0000
  O3          0.59303      0.40400      0.91288  1.0000
  O3          0.44232      0.85611      0.75782  1.0000
  O1          0.17023      0.56197      0.08828  1.0000
  O3          0.45525      0.61712      0.42278  1.0000
  F           0.47097      0.88220      0.26535  1.0000
  F           0.09354      0.54540      0.59629  1.0000
  F           0.48548      0.53327      0.93307  1.0000
  F           0.58742      0.14437      0.76715  1.0000
  F           0.88380      0.42957      0.09890  1.0000
  F           0.56532      0.48612      0.43606  1.0000
