data_cif

_audit_creation_method             'generated by GULP'

_symmetry_space_group_name_H-M     'P 1'
_symmetry_Int_Tables_number        1
_symmetry_cell_setting             triclinic

_cell_length_a                       12.1275
_cell_length_b                       12.1271
_cell_length_c                       29.8293
_cell_angle_alpha                   89.8985
_cell_angle_beta                    89.9849
_cell_angle_gamma                  119.9945

loop_
_atom_site_label
_atom_site_fract_x
_atom_site_fract_y
_atom_site_fract_z
_atom_site_occupancy
  Ge          0.69960      0.37570      0.03389  1.0000
  Si          0.63442      0.31652      0.36708  1.0000
  Ge          0.68547      0.30547      0.70146  1.0000
  Ge          0.31296      0.62405      0.55191  1.0000
  Ge          0.37976      0.67785      0.88575  1.0000
  Ge          0.32131      0.68567      0.22028  1.0000
  Ge          0.37771      0.68919      0.31914  1.0000
  Si          0.32631      0.62816      0.98414  1.0000
  Si          0.31255      0.67485      0.65008  1.0000
  Ge          0.63235      0.30629      0.80024  1.0000
  Ge          0.68884      0.37382      0.46528  1.0000
  Ge          0.69376      0.31582      0.13244  1.0000
  Si          0.53592      0.41970      0.96408  1.0000
  Ge          0.57675      0.10405      0.29864  1.0000
  Ge          0.90010      0.46482      0.62987  1.0000
  Ge          0.49212      0.56800      0.49361  1.0000
  Ge          0.43124      0.91014      0.82574  1.0000
  Ge          0.09008      0.50864      0.15951  1.0000
  Si          0.42505      0.53036      0.38928  1.0000
  Ge          0.11527      0.57191      0.05292  1.0000
  Ge          0.46862      0.88875      0.71892  1.0000
  Ge          0.57449      0.48404      0.85945  1.0000
  Ge          0.92474      0.42780      0.52311  1.0000
  Ge          0.51793      0.08167      0.19246  1.0000
  Si          0.28473      0.41420      0.85314  1.0000
  Si          0.58710      0.86131      0.18953  1.0000
  Si          0.14422      0.71983      0.52076  1.0000
  Ge          0.71015      0.60516      0.36610  1.0000
  Si          0.39575      0.10267      0.69800  1.0000
  Si          0.90047      0.28558      0.03093  1.0000
  Si          0.42455      0.27944      0.49855  1.0000
  Si          0.87065      0.58151      0.16286  1.0000
  Si          0.72343      0.12976      0.82845  1.0000
  Si          0.61047      0.70131      0.98552  1.0000
  Si          0.10804      0.38755      0.65192  1.0000
  Si          0.28966      0.89286      0.31994  1.0000
  Ge          0.25178      0.34629      0.95727  1.0000
  Si          0.65744      0.89717      0.29197  1.0000
  Si          0.10866      0.75087      0.62369  1.0000
  Si          0.77950      0.65603      0.46852  1.0000
  Si          0.34902      0.11383      0.80070  1.0000
  Si          0.88536      0.22370      0.13351  1.0000
  Ge          0.35398      0.24542      0.39487  1.0000
  Si          0.91081      0.65565      0.06035  1.0000
  Si          0.75744      0.09435      0.72564  1.0000
  Si          0.66230      0.77003      0.88409  1.0000
  Si          0.12522      0.34248      0.54917  1.0000
  Si          0.23138      0.87777      0.21777  1.0000
  Si          0.97879      0.11571      0.97724  1.0000
  Si          0.88306      0.85103      0.30852  1.0000
  Si          0.14983      0.02104      0.64355  1.0000
  Si          0.05288      0.88329      0.47551  1.0000
  Si          0.12174      0.16056      0.80783  1.0000
  Si          0.83900      0.94956      0.14188  1.0000
  Si          0.12128      0.97336      0.37363  1.0000
  Si          0.85442      0.87292      0.04092  1.0000
  Si          0.02975      0.14064      0.70670  1.0000
  Si          0.89068      0.04450      0.87527  1.0000
  Si          0.17049      0.11410      0.54275  1.0000
  Si          0.95992      0.83620      0.20775  1.0000
  O2          0.93637      0.99007      0.00738  1.0000
  O2          0.99943      0.93606      0.34220  1.0000
  O2          0.05784      0.04892      0.67513  1.0000
  O2          0.09014      0.00047      0.50855  1.0000
  O2          0.00507      0.07790      0.84109  1.0000
  O2          0.92619      0.91620      0.17300  1.0000
  O3          0.34782      0.58711      0.36394  1.0000
  O3          0.41032      0.74696      0.68983  1.0000
  O3          0.25675      0.65850      0.02381  1.0000
  O1          0.66545      0.44878      0.82756  1.0000
  O1          0.54954      0.20352      0.15834  1.0000
  O1          0.80260      0.34063      0.48877  1.0000
  O3          0.59570      0.34716      0.98997  1.0000
  O1          0.76184      0.41175      0.65901  1.0000
  O3          0.66349      0.24315      0.32826  1.0000
  O1          0.45897      0.65884      0.52665  1.0000
  O1          0.21051      0.54124      0.19414  1.0000
  O1          0.34499      0.78881      0.86057  1.0000
  O3          0.12869      0.20603      0.98041  1.0000
  O2          0.78967      0.90992      0.30998  1.0000
  O2          0.10130      0.87076      0.64444  1.0000
  O2          0.90567      0.78494      0.48577  1.0000
  O2          0.22023      0.11156      0.81730  1.0000
  O2          0.88786      0.09724      0.15031  1.0000
  O3          0.21279      0.12348      0.37231  1.0000
  O2          0.92168      0.78764      0.04247  1.0000
  O2          0.87833      0.08460      0.70677  1.0000
  O2          0.79315      0.89551      0.86842  1.0000
  O2          0.12176      0.21276      0.53351  1.0000
  O2          0.10777      0.88388      0.19979  1.0000
  O2          0.93644      0.86408      0.25833  1.0000
  O2          0.14124      0.06320      0.59349  1.0000
  O2          0.94150      0.07430      0.92585  1.0000
  O2          0.07526      0.13588      0.75661  1.0000
  O2          0.85492      0.92578      0.08998  1.0000
  O2          0.07473      0.93076      0.42441  1.0000
  O2          0.91038      0.19324      0.99368  1.0000
  O3          0.80693      0.70615      0.32345  1.0000
  O2          0.29387      0.09653      0.66120  1.0000
  O2          0.14079      0.82075      0.48552  1.0000
  O2          0.18521      0.31120      0.81707  1.0000
  O2          0.69042      0.86213      0.15442  1.0000
  O2          0.19749      0.90377      0.35702  1.0000
  O2          0.70915      0.78790      0.02432  1.0000
  O2          0.10250      0.28581      0.68882  1.0000
  O2          0.82401      0.12764      0.86405  1.0000
  O2          0.32222      0.17910      0.53481  1.0000
  O2          0.87359      0.68523      0.19828  1.0000
  O1          0.30585      0.60675      0.27219  1.0000
  O3          0.38736      0.68912      0.60492  1.0000
  O3          0.31636      0.69080      0.93874  1.0000
  O1          0.70057      0.38661      0.74925  1.0000
  O1          0.61591      0.30838      0.08115  1.0000
  O3          0.70262      0.31300      0.41209  1.0000
  O3          0.38581      0.34354      0.97438  1.0000
  O3          0.65319      0.01853      0.31004  1.0000
  O3          0.97872      0.62877      0.63761  1.0000
  O3          0.65826      0.66268      0.48504  1.0000
  O3          0.34225      0.98794      0.81958  1.0000
  O3          0.01050      0.34187      0.15289  1.0000
  O3          0.35672      0.38148      0.37672  1.0000
  O3          0.03900      0.65970      0.04564  1.0000
  O3          0.63250      0.96654      0.71077  1.0000
  O3          0.66775      0.65073      0.86508  1.0000
  O3          0.00268      0.33837      0.52825  1.0000
  O3          0.35195      0.00627      0.20144  1.0000
  O3          0.77995      0.29670      0.01642  1.0000
  O3          0.68838      0.46029      0.34856  1.0000
  O3          0.52670      0.22347      0.68347  1.0000
  O3          0.27902      0.72783      0.51871  1.0000
  O3          0.27566      0.54061      0.85234  1.0000
  O3          0.46277      0.72414      0.18895  1.0000
  O3          0.30963      0.77943      0.33714  1.0000
  O2          0.47561      0.68814      0.99926  1.0000
  O2          0.23002      0.52428      0.66464  1.0000
  O3          0.73357      0.26554      0.83111  1.0000
  O3          0.55009      0.26835      0.49720  1.0000
  O3          0.73465      0.45575      0.16484  1.0000
  O3          0.79247      0.54111      0.03580  1.0000
  O3          0.47932      0.23799      0.37156  1.0000
  O3          0.76053      0.21393      0.70219  1.0000
  O3          0.25613      0.46112      0.53290  1.0000
  O3          0.54281      0.77893      0.86669  1.0000
  O3          0.22522      0.75154      0.19930  1.0000
  O3          0.54342      0.77167      0.31354  1.0000
  O3          0.25008      0.47300      0.98220  1.0000
  O2          0.22515      0.74319      0.64696  1.0000
  O3          0.46876      0.24144      0.81846  1.0000
  O3          0.78453      0.53455      0.48652  1.0000
  O3          0.75653      0.21458      0.15063  1.0000
  O3          0.23234      0.33556      0.90023  1.0000
  O2          0.66121      0.89560      0.23769  1.0000
  O2          0.12162      0.76683      0.56985  1.0000
  O3          0.79778      0.66502      0.41401  1.0000
  O2          0.34137      0.11519      0.74588  1.0000
  O2          0.88624      0.21663      0.07860  1.0000
  O3          0.34333      0.23049      0.45213  1.0000
  O2          0.89806      0.65381      0.11436  1.0000
  O2          0.76855      0.10374      0.77979  1.0000
  O2          0.66586      0.77685      0.93919  1.0000
  O2          0.12155      0.33401      0.60421  1.0000
  O2          0.21534      0.86625      0.27264  1.0000
  O2          0.59911      0.56338      0.98454  1.0000
  O3          0.42202      0.02408      0.31841  1.0000
  O3          0.98271      0.39823      0.65497  1.0000
  O3          0.46199      0.42094      0.51388  1.0000
  O3          0.58329      0.02160      0.84319  1.0000
  O3          0.97856      0.54900      0.17741  1.0000
  O3          0.56815      0.60347      0.36919  1.0000
  O3          0.02646      0.42302      0.02904  1.0000
  O3          0.40662      0.97643      0.69552  1.0000
  O3          0.42569      0.44590      0.83876  1.0000
  O3          0.03323      0.58122      0.50554  1.0000
  O3          0.55171      0.96632      0.17340  1.0000
  O1          0.58889      0.14232      0.24388  1.0000
  O1          0.86330      0.42676      0.57571  1.0000
  O3          0.56067      0.41662      0.91220  1.0000
  O1          0.43338      0.84971      0.77321  1.0000
  O1          0.15237      0.57173      0.10713  1.0000
  O3          0.41864      0.54857      0.44164  1.0000
  F           0.41619      0.84041      0.25190  1.0000
  F           0.15515      0.56127      0.57954  1.0000
  F           0.43464      0.57698      0.91454  1.0000
  F           0.57281      0.15194      0.76704  1.0000
  F           0.84919      0.41067      0.10049  1.0000
  F           0.59101      0.43346      0.43506  1.0000
