data_cif

_audit_creation_method             'generated by GULP'

_symmetry_space_group_name_H-M     'P 1'
_symmetry_Int_Tables_number        1
_symmetry_cell_setting             triclinic

_cell_length_a                       12.1723
_cell_length_b                       12.1561
_cell_length_c                       29.9647
_cell_angle_alpha                   89.0674
_cell_angle_beta                    91.1323
_cell_angle_gamma                  120.0256

loop_
_atom_site_label
_atom_site_fract_x
_atom_site_fract_y
_atom_site_fract_z
_atom_site_occupancy
  Ge          0.69960      0.37570      0.03389  1.0000
  Ge          0.66218      0.32623      0.37089  1.0000
  Ge          0.70436      0.32666      0.70047  1.0000
  Ge          0.33770      0.64586      0.53148  1.0000
  Ge          0.39782      0.67611      0.86415  1.0000
  Ge          0.33115      0.69393      0.19462  1.0000
  Ge          0.40243      0.71606      0.29410  1.0000
  Si          0.33209      0.62491      0.96666  1.0000
  Ge          0.31400      0.68298      0.63005  1.0000
  Ge          0.63599      0.28919      0.79846  1.0000
  Ge          0.69995      0.40507      0.46786  1.0000
  Ge          0.72906      0.32944      0.13839  1.0000
  Ge          0.52492      0.42369      0.96666  1.0000
  Ge          0.60724      0.10017      0.30634  1.0000
  Ge          0.92872      0.50034      0.63578  1.0000
  Ge          0.50887      0.60160      0.46384  1.0000
  Ge          0.43468      0.90124      0.79971  1.0000
  Ge          0.11246      0.52623      0.12510  1.0000
  Ge          0.46244      0.54703      0.35804  1.0000
  Ge          0.11277      0.57913      0.02571  1.0000
  Ge          0.48190      0.90727      0.69399  1.0000
  Ge          0.59283      0.45662      0.86706  1.0000
  Si          0.92134      0.44747      0.53239  1.0000
  Si          0.55434      0.11146      0.20332  1.0000
  Si          0.30441      0.39086      0.85363  1.0000
  Si          0.62300      0.89715      0.18922  1.0000
  Si          0.13715      0.73301      0.52257  1.0000
  Si          0.74907      0.61059      0.35425  1.0000
  Si          0.41838      0.13128      0.68751  1.0000
  Si          0.89914      0.28939      0.01824  1.0000
  Si          0.42602      0.31371      0.48590  1.0000
  Si          0.93101      0.61527      0.15208  1.0000
  Si          0.72426      0.10385      0.81808  1.0000
  Ge          0.61190      0.70014      0.98654  1.0000
  Si          0.13118      0.41267      0.65381  1.0000
  Si          0.31749      0.89684      0.32128  1.0000
  Si          0.24887      0.33710      0.95521  1.0000
  Si          0.68754      0.89660      0.29104  1.0000
  Si          0.13239      0.78640      0.62432  1.0000
  Si          0.79358      0.68533      0.45558  1.0000
  Si          0.35315      0.10492      0.78948  1.0000
  Si          0.93284      0.24765      0.11970  1.0000
  Si          0.37843      0.26192      0.38359  1.0000
  Si          0.92027      0.66383      0.04915  1.0000
  Si          0.76882      0.10650      0.71577  1.0000
  Si          0.68034      0.74345      0.88412  1.0000
  Si          0.11985      0.36316      0.55089  1.0000
  Si          0.27328      0.91475      0.21839  1.0000
  Si          0.97118      0.11643      0.97018  1.0000
  Si          0.91927      0.85769      0.30410  1.0000
  Si          0.17039      0.05580      0.63661  1.0000
  Si          0.06433      0.90907      0.46984  1.0000
  Si          0.12582      0.14625      0.80313  1.0000
  Si          0.87003      0.97126      0.13782  1.0000
  Si          0.15635      0.98706      0.36936  1.0000
  Si          0.85823      0.88326      0.03739  1.0000
  Si          0.04201      0.15772      0.70226  1.0000
  Si          0.89387      0.02126      0.86954  1.0000
  Si          0.17358      0.14458      0.53537  1.0000
  Si          0.99985      0.86069      0.20310  1.0000
  O2          0.94319      0.00361      0.00514  1.0000
  O2          0.03781      0.94879      0.33579  1.0000
  O2          0.07985      0.08089      0.66830  1.0000
  O2          0.09777      0.02741      0.50174  1.0000
  O2          0.01318      0.06285      0.83729  1.0000
  O2          0.95469      0.93903      0.17157  1.0000
  O1          0.37014      0.57741      0.32463  1.0000
  O1          0.44966      0.78369      0.66199  1.0000
  O3          0.23364      0.65944      0.98758  1.0000
  O1          0.67568      0.42006      0.83266  1.0000
  O3          0.60157      0.23467      0.17312  1.0000
  O3          0.80126      0.37164      0.50255  1.0000
  O1          0.57159      0.33531      0.00301  1.0000
  O1          0.79221      0.44979      0.66499  1.0000
  O1          0.69494      0.23473      0.33696  1.0000
  O1          0.45181      0.68251      0.49302  1.0000
  O1          0.25537      0.58378      0.15610  1.0000
  O1          0.35613      0.76428      0.83130  1.0000
  O2          0.11912      0.22028      0.97432  1.0000
  O2          0.82022      0.90750      0.30769  1.0000
  O2          0.12047      0.90648      0.64066  1.0000
  O2          0.91302      0.82097      0.47083  1.0000
  O2          0.21900      0.08856      0.80546  1.0000
  O2          0.93301      0.12227      0.13839  1.0000
  O2          0.25244      0.13679      0.36394  1.0000
  O2          0.90717      0.78303      0.03045  1.0000
  O2          0.89225      0.10394      0.69652  1.0000
  O2          0.80641      0.87000      0.86512  1.0000
  O2          0.11059      0.23389      0.53157  1.0000
  O2          0.15218      0.92573      0.19960  1.0000
  O2          0.96448      0.86764      0.25369  1.0000
  O2          0.15998      0.09318      0.58576  1.0000
  O2          0.93981      0.06093      0.92041  1.0000
  O2          0.07285      0.13647      0.75298  1.0000
  O2          0.87820      0.92607      0.08869  1.0000
  O2          0.10882      0.95705      0.41988  1.0000
  O2          0.89200      0.18635      0.98197  1.0000
  O2          0.85248      0.71029      0.31885  1.0000
  O2          0.31723      0.13518      0.65192  1.0000
  O2          0.13069      0.82900      0.48572  1.0000
  O2          0.20341      0.29377      0.81695  1.0000
  O2          0.72369      0.90634      0.15216  1.0000
  O2          0.22499      0.90740      0.35730  1.0000
  O3          0.71231      0.81855      0.02444  1.0000
  O2          0.12036      0.30696      0.69013  1.0000
  O2          0.81791      0.09191      0.85447  1.0000
  O2          0.32107      0.22256      0.52243  1.0000
  O2          0.92997      0.71437      0.18789  1.0000
  O1          0.32162      0.63012      0.24649  1.0000
  O1          0.40387      0.69511      0.58279  1.0000
  O3          0.36307      0.69037      0.91839  1.0000
  O1          0.71976      0.38477      0.75262  1.0000
  O1          0.66197      0.33899      0.08965  1.0000
  O1          0.70925      0.31658      0.42377  1.0000
  O3          0.36025      0.32462      0.97809  1.0000
  O3          0.69266      0.02170      0.31060  1.0000
  O3          0.00806      0.66363      0.64293  1.0000
  O3          0.67121      0.68525      0.47443  1.0000
  O3          0.35367      0.98162      0.80946  1.0000
  O3          0.05937      0.36398      0.13861  1.0000
  O3          0.36914      0.38182      0.36858  1.0000
  O3          0.05184      0.68184      0.03177  1.0000
  O3          0.64721      0.97708      0.70272  1.0000
  O3          0.69384      0.62396      0.87376  1.0000
  O2          0.99157      0.36237      0.53641  1.0000
  O2          0.40068      0.04518      0.20484  1.0000
  O3          0.76522      0.28127      0.01882  1.0000
  O3          0.75874      0.48457      0.35294  1.0000
  O3          0.54465      0.26596      0.68408  1.0000
  O3          0.26767      0.73669      0.51493  1.0000
  O3          0.29924      0.51943      0.84858  1.0000
  O3          0.49472      0.77041      0.18011  1.0000
  O3          0.31541      0.76652      0.32865  1.0000
  O3          0.46268      0.68385      0.99482  1.0000
  O3          0.26031      0.54057      0.66324  1.0000
  O3          0.71694      0.22578      0.83108  1.0000
  O3          0.55757      0.32318      0.49986  1.0000
  O3          0.80984      0.47807      0.16330  1.0000
  O3          0.81197      0.53549      0.02755  1.0000
  O3          0.49935      0.26360      0.36257  1.0000
  O3          0.76455      0.22449      0.69305  1.0000
  O3          0.23893      0.48088      0.52862  1.0000
  O3          0.55687      0.72921      0.85754  1.0000
  O3          0.27366      0.80081      0.19440  1.0000
  O3          0.57007      0.77039      0.30946  1.0000
  O2          0.25423      0.46927      0.96806  1.0000
  O3          0.25825      0.79406      0.64381  1.0000
  O3          0.46888      0.23075      0.80918  1.0000
  O3          0.80681      0.57207      0.47680  1.0000
  O3          0.80832      0.24482      0.13857  1.0000
  O2          0.24902      0.32205      0.90138  1.0000
  O2          0.69105      0.90040      0.23651  1.0000
  O2          0.13005      0.79129      0.56980  1.0000
  O2          0.79362      0.68653      0.40108  1.0000
  O2          0.34703      0.10319      0.73497  1.0000
  O2          0.92994      0.24152      0.06536  1.0000
  O2          0.37401      0.24449      0.43771  1.0000
  O2          0.91339      0.66652      0.10317  1.0000
  O2          0.78990      0.12087      0.76959  1.0000
  O3          0.67933      0.77401      0.93606  1.0000
  O2          0.13123      0.35576      0.60470  1.0000
  O2          0.25957      0.90254      0.27210  1.0000
  O1          0.61175      0.56417      0.99934  1.0000
  O3          0.45814      0.01676      0.32951  1.0000
  O3          0.01008      0.43105      0.66008  1.0000
  O3          0.43451      0.45010      0.48717  1.0000
  O3          0.58824      0.97516      0.82110  1.0000
  O3          0.05956      0.61295      0.15822  1.0000
  O3          0.60799      0.57288      0.33913  1.0000
  O3          0.00613      0.43025      0.00401  1.0000
  O3          0.45320      0.02579      0.67397  1.0000
  O3          0.44478      0.42233      0.84413  1.0000
  O2          0.02461      0.58900      0.51471  1.0000
  O2          0.59847      0.01637      0.18348  1.0000
  O3          0.61040      0.15484      0.25266  1.0000
  O3          0.87896      0.45876      0.58189  1.0000
  O1          0.58169      0.39016      0.91873  1.0000
  O1          0.41524      0.85479      0.74582  1.0000
  O1          0.18860      0.58050      0.07400  1.0000
  O1          0.47941      0.61637      0.40940  1.0000
  F           0.46481      0.86744      0.26230  1.0000
  F           0.16704      0.59781      0.59513  1.0000
  F           0.48207      0.52961      0.92945  1.0000
  F           0.57779      0.14530      0.76039  1.0000
  F           0.95370      0.46735      0.09211  1.0000
  F           0.60901      0.45609      0.42776  1.0000
