data_cif

_audit_creation_method             'generated by GULP'

_symmetry_space_group_name_H-M     'P 1'
_symmetry_Int_Tables_number        1
_symmetry_cell_setting             triclinic

_cell_length_a                       12.1396
_cell_length_b                       12.1911
_cell_length_c                       29.9258
_cell_angle_alpha                   90.4288
_cell_angle_beta                    90.4632
_cell_angle_gamma                  120.1324

loop_
_atom_site_label
_atom_site_fract_x
_atom_site_fract_y
_atom_site_fract_z
_atom_site_occupancy
  Ge          0.69960      0.37570      0.03389  1.0000
  Ge          0.64185      0.31091      0.36729  1.0000
  Ge          0.68967      0.32838      0.70537  1.0000
  Ge          0.33580      0.64610      0.54245  1.0000
  Ge          0.36434      0.69293      0.87597  1.0000
  Si          0.33395      0.69380      0.20717  1.0000
  Ge          0.40112      0.71340      0.30939  1.0000
  Ge          0.33897      0.61773      0.97257  1.0000
  Ge          0.29433      0.68105      0.63997  1.0000
  Ge          0.62574      0.30332      0.80383  1.0000
  Ge          0.68582      0.38604      0.46664  1.0000
  Ge          0.71855      0.32959      0.13224  1.0000
  Si          0.52057      0.41350      0.96953  1.0000
  Ge          0.59377      0.09308      0.29738  1.0000
  Ge          0.90767      0.49907      0.63747  1.0000
  Ge          0.50941      0.59366      0.47757  1.0000
  Ge          0.41499      0.91723      0.81095  1.0000
  Ge          0.10722      0.51138      0.14530  1.0000
  Ge          0.45094      0.53774      0.37246  1.0000
  Ge          0.12017      0.56417      0.03959  1.0000
  Ge          0.45948      0.90833      0.70507  1.0000
  Ge          0.56131      0.46886      0.86563  1.0000
  Ge          0.91389      0.44992      0.53140  1.0000
  Ge          0.55263      0.11081      0.19640  1.0000
  Si          0.27357      0.40689      0.86017  1.0000
  Si          0.61631      0.88735      0.19147  1.0000
  Si          0.14068      0.73699      0.52784  1.0000
  Si          0.73669      0.60314      0.36008  1.0000
  Si          0.39987      0.13318      0.69597  1.0000
  Si          0.89283      0.27880      0.02777  1.0000
  Si          0.41897      0.30263      0.49300  1.0000
  Si          0.90114      0.59702      0.15835  1.0000
  Si          0.70935      0.11878      0.82724  1.0000
  Si          0.61135      0.69974      0.99035  1.0000
  Si          0.10795      0.40961      0.65846  1.0000
  Si          0.32152      0.91625      0.32478  1.0000
  Si          0.23771      0.33617      0.96174  1.0000
  Si          0.68973      0.91132      0.29335  1.0000
  Si          0.11411      0.78419      0.62974  1.0000
  Si          0.79276      0.67065      0.46248  1.0000
  Si          0.33926      0.12422      0.79829  1.0000
  Si          0.90155      0.22703      0.13052  1.0000
  Si          0.36141      0.25519      0.39014  1.0000
  Si          0.92227      0.65469      0.05618  1.0000
  Si          0.74887      0.10704      0.72458  1.0000
  Si          0.65044      0.75487      0.88832  1.0000
  Si          0.11268      0.36279      0.55573  1.0000
  Si          0.26970      0.91058      0.22175  1.0000
  Si          0.96955      0.10679      0.97630  1.0000
  Si          0.90666      0.84971      0.30899  1.0000
  Si          0.15225      0.05385      0.64288  1.0000
  Si          0.06263      0.90415      0.47665  1.0000
  Si          0.10512      0.15905      0.80937  1.0000
  Si          0.86061      0.95554      0.14241  1.0000
  Si          0.14271      0.98070      0.37533  1.0000
  Si          0.86615      0.87119      0.04132  1.0000
  Si          0.02147      0.15805      0.70793  1.0000
  Si          0.87379      0.02880      0.87517  1.0000
  Si          0.16579      0.14120      0.54165  1.0000
  Si          0.98928      0.84853      0.20807  1.0000
  O2          0.93984      0.98893      0.00803  1.0000
  O2          0.02226      0.93802      0.34258  1.0000
  O2          0.05848      0.07951      0.67346  1.0000
  O2          0.08697      0.02305      0.50766  1.0000
  O2          0.98772      0.06636      0.84045  1.0000
  O2          0.94985      0.92901      0.17565  1.0000
  O1          0.36341      0.58112      0.34006  1.0000
  O1          0.42505      0.77977      0.67480  1.0000
  O1          0.24805      0.65284      0.00945  1.0000
  O1          0.65809      0.43832      0.83581  1.0000
  O1          0.57856      0.22473      0.16029  1.0000
  O1          0.79100      0.35560      0.49849  1.0000
  O3          0.57847      0.33972      0.99564  1.0000
  O1          0.76977      0.44357      0.66723  1.0000
  O1          0.67849      0.23410      0.32993  1.0000
  O1          0.46071      0.67998      0.50843  1.0000
  O3          0.24445      0.56961      0.17886  1.0000
  O1          0.32968      0.78313      0.84188  1.0000
  O2          0.12144      0.20147      0.97885  1.0000
  O2          0.81228      0.90518      0.31106  1.0000
  O2          0.10034      0.90438      0.64547  1.0000
  O2          0.91369      0.80329      0.47969  1.0000
  O2          0.20741      0.11349      0.81467  1.0000
  O2          0.91041      0.10477      0.14687  1.0000
  O2          0.23253      0.13168      0.37099  1.0000
  O2          0.93258      0.78583      0.03821  1.0000
  O2          0.87003      0.09951      0.70476  1.0000
  O2          0.77717      0.87928      0.86958  1.0000
  O2          0.11098      0.23609      0.53636  1.0000
  O2          0.13915      0.90097      0.20235  1.0000
  O2          0.95928      0.86281      0.25915  1.0000
  O2          0.14709      0.09199      0.59205  1.0000
  O2          0.92794      0.05969      0.92561  1.0000
  O2          0.06065      0.14465      0.75802  1.0000
  O2          0.87530      0.92153      0.09175  1.0000
  O2          0.09770      0.94694      0.42587  1.0000
  O2          0.89531      0.17818      0.99221  1.0000
  O2          0.83446      0.70338      0.32356  1.0000
  O2          0.29775      0.13276      0.66011  1.0000
  O2          0.14465      0.84038      0.49253  1.0000
  O2          0.16832      0.30596      0.82440  1.0000
  O2          0.71169      0.87549      0.15586  1.0000
  O2          0.21912      0.90997      0.36102  1.0000
  O2          0.71864      0.78598      0.02745  1.0000
  O2          0.09418      0.30522      0.69473  1.0000
  O2          0.80255      0.10682      0.86386  1.0000
  O2          0.31469      0.21154      0.52937  1.0000
  O2          0.90957      0.70091      0.19448  1.0000
  O3          0.33285      0.65290      0.25789  1.0000
  O1          0.39230      0.69060      0.59530  1.0000
  O1          0.31989      0.70345      0.92866  1.0000
  O1          0.71070      0.39294      0.75735  1.0000
  O1          0.63225      0.32851      0.08447  1.0000
  O1          0.68613      0.29810      0.42050  1.0000
  O2          0.36792      0.34010      0.97823  1.0000
  O3          0.70459      0.04068      0.31084  1.0000
  O3          0.98994      0.66140      0.64827  1.0000
  O3          0.67313      0.67239      0.48460  1.0000
  O3          0.33975      0.00441      0.81998  1.0000
  O3          0.02557      0.34842      0.15231  1.0000
  O3          0.34846      0.37605      0.37894  1.0000
  O3          0.05333      0.66231      0.04680  1.0000
  O3          0.62534      0.97685      0.71325  1.0000
  O3          0.65515      0.63490      0.87129  1.0000
  O3          0.98414      0.35515      0.54117  1.0000
  O3          0.38407      0.03571      0.20340  1.0000
  O3          0.76078      0.27546      0.02018  1.0000
  O3          0.74055      0.47638      0.35550  1.0000
  O3          0.52737      0.26625      0.69129  1.0000
  O3          0.27537      0.74419      0.52544  1.0000
  O3          0.26779      0.53429      0.85717  1.0000
  O2          0.47984      0.75600      0.18972  1.0000
  O3          0.33057      0.79049      0.33437  1.0000
  O3          0.48491      0.69754      0.00446  1.0000
  O3          0.23168      0.53945      0.67235  1.0000
  O3          0.70717      0.24541      0.83825  1.0000
  O3          0.54948      0.30674      0.50264  1.0000
  O3          0.77405      0.46783      0.16752  1.0000
  O3          0.80873      0.53700      0.02948  1.0000
  O3          0.48043      0.26740      0.36428  1.0000
  O3          0.74533      0.22191      0.70028  1.0000
  O3          0.23224      0.48378      0.53435  1.0000
  O3          0.52826      0.75677      0.86894  1.0000
  O2          0.27879      0.78996      0.20284  1.0000
  O3          0.56580      0.79019      0.31379  1.0000
  O3          0.22941      0.44990      0.98395  1.0000
  O3          0.23946      0.79416      0.65069  1.0000
  O3          0.45812      0.25264      0.81591  1.0000
  O3          0.80374      0.55383      0.47960  1.0000
  O3          0.77518      0.22013      0.14747  1.0000
  O2          0.22594      0.33363      0.90743  1.0000
  O2          0.68795      0.90289      0.23886  1.0000
  O2          0.11375      0.78430      0.57514  1.0000
  O2          0.78843      0.67636      0.40792  1.0000
  O2          0.33059      0.11297      0.74372  1.0000
  O2          0.90851      0.22750      0.07593  1.0000
  O2          0.36261      0.23763      0.44385  1.0000
  O2          0.89579      0.65232      0.10940  1.0000
  O2          0.77280      0.12855      0.77836  1.0000
  O2          0.66265      0.76886      0.94265  1.0000
  O2          0.12520      0.35882      0.60984  1.0000
  O2          0.25687      0.90665      0.27571  1.0000
  O2          0.59176      0.55720      0.99045  1.0000
  O3          0.45422      0.04208      0.33217  1.0000
  O3          0.98143      0.42101      0.66008  1.0000
  O3          0.43250      0.44088      0.49818  1.0000
  O3          0.57052      0.99430      0.83132  1.0000
  O3          0.02652      0.58442      0.16504  1.0000
  O3          0.59435      0.57441      0.34870  1.0000
  O3          0.00372      0.41947      0.01736  1.0000
  O3          0.43225      0.02485      0.68342  1.0000
  O3          0.41312      0.43817      0.84618  1.0000
  O3          0.03493      0.59634      0.51314  1.0000
  O3          0.59262      0.99827      0.17745  1.0000
  O1          0.61921      0.17360      0.24738  1.0000
  O1          0.86305      0.46953      0.58302  1.0000
  O3          0.54541      0.40406      0.91826  1.0000
  O1          0.39334      0.86544      0.75710  1.0000
  O1          0.16311      0.54435      0.09269  1.0000
  O1          0.47131      0.60821      0.42371  1.0000
  F           0.49375      0.93634      0.26625  1.0000
  F           0.15252      0.59645      0.60112  1.0000
  F           0.41832      0.56441      0.93160  1.0000
  F           0.56186      0.15603      0.76866  1.0000
  F           0.86895      0.41647      0.09926  1.0000
  F           0.59844      0.44913      0.43399  1.0000
