data_cif

_audit_creation_method             'generated by GULP'

_symmetry_space_group_name_H-M     'P 1'
_symmetry_Int_Tables_number        1
_symmetry_cell_setting             triclinic

_cell_length_a                       12.1217
_cell_length_b                       12.1336
_cell_length_c                       29.8867
_cell_angle_alpha                   89.9549
_cell_angle_beta                    90.0838
_cell_angle_gamma                  119.9509

loop_
_atom_site_label
_atom_site_fract_x
_atom_site_fract_y
_atom_site_fract_z
_atom_site_occupancy
  Ge          0.69960      0.37570      0.03389  1.0000
  Ge          0.64002      0.32770      0.36538  1.0000
  Ge          0.68984      0.30956      0.70104  1.0000
  Ge          0.32533      0.63468      0.55156  1.0000
  Ge          0.38890      0.68556      0.88243  1.0000
  Ge          0.33291      0.70001      0.21551  1.0000
  Ge          0.38647      0.70042      0.31373  1.0000
  Si          0.32662      0.63684      0.98032  1.0000
  Ge          0.31969      0.68895      0.64988  1.0000
  Ge          0.64009      0.31413      0.79970  1.0000
  Ge          0.69817      0.37802      0.46381  1.0000
  Ge          0.70472      0.32035      0.13207  1.0000
  Si          0.54083      0.42556      0.96418  1.0000
  Ge          0.58346      0.11253      0.29460  1.0000
  Ge          0.90360      0.46930      0.62932  1.0000
  Ge          0.50183      0.57726      0.49217  1.0000
  Ge          0.44301      0.91962      0.82319  1.0000
  Ge          0.10184      0.52478      0.15430  1.0000
  Ge          0.43849      0.53988      0.38595  1.0000
  Ge          0.11392      0.57929      0.04842  1.0000
  Si          0.48287      0.89891      0.71907  1.0000
  Ge          0.58332      0.49030      0.86011  1.0000
  Ge          0.93174      0.43323      0.52333  1.0000
  Si          0.51923      0.09170      0.19103  1.0000
  Si          0.29470      0.41960      0.85163  1.0000
  Si          0.59861      0.88034      0.18664  1.0000
  Si          0.15000      0.72476      0.52047  1.0000
  Si          0.72588      0.61753      0.36354  1.0000
  Si          0.40232      0.10241      0.69769  1.0000
  Si          0.90501      0.29098      0.02878  1.0000
  Si          0.43178      0.28600      0.49417  1.0000
  Si          0.87882      0.58957      0.16039  1.0000
  Si          0.73371      0.13944      0.82814  1.0000
  Ge          0.61485      0.71153      0.98441  1.0000
  Si          0.11755      0.39707      0.65231  1.0000
  Si          0.29919      0.90285      0.31791  1.0000
  Ge          0.25657      0.35501      0.95545  1.0000
  Si          0.66933      0.90995      0.28862  1.0000
  Si          0.10817      0.75704      0.62272  1.0000
  Si          0.78757      0.66094      0.46591  1.0000
  Si          0.35718      0.12039      0.79951  1.0000
  Si          0.90212      0.23832      0.13066  1.0000
  Si          0.35807      0.25222      0.39180  1.0000
  Si          0.90504      0.65688      0.05810  1.0000
  Si          0.76655      0.10400      0.72597  1.0000
  Si          0.67155      0.77850      0.88236  1.0000
  Si          0.13511      0.35158      0.55004  1.0000
  Si          0.23993      0.89088      0.21540  1.0000
  Si          0.98497      0.12207      0.97586  1.0000
  Si          0.89437      0.86349      0.30846  1.0000
  Si          0.15560      0.02687      0.64182  1.0000
  Si          0.06086      0.88939      0.47441  1.0000
  Si          0.12977      0.16670      0.80638  1.0000
  Si          0.85367      0.96644      0.14120  1.0000
  Si          0.13174      0.98157      0.37311  1.0000
  Si          0.86086      0.88394      0.04096  1.0000
  Si          0.03552      0.14701      0.70574  1.0000
  Si          0.89901      0.05101      0.87394  1.0000
  Si          0.17920      0.12233      0.54081  1.0000
  Si          0.96655      0.84343      0.20733  1.0000
  O2          0.94576      0.99917      0.00687  1.0000
  O2          0.01243      0.95244      0.34110  1.0000
  O2          0.06775      0.06066      0.67305  1.0000
  O2          0.09485      0.00610      0.50761  1.0000
  O2          0.01468      0.08722      0.84021  1.0000
  O2          0.92716      0.92520      0.17601  1.0000
  O1          0.35605      0.59593      0.35673  1.0000
  O3          0.42886      0.76895      0.69216  1.0000
  O3          0.25038      0.66727      0.01750  1.0000
  O1          0.67447      0.45516      0.82820  1.0000
  O3          0.55883      0.20577      0.15849  1.0000
  O1          0.81080      0.34511      0.48886  1.0000
  O3          0.59315      0.34625      0.99058  1.0000
  O1          0.76460      0.41367      0.65797  1.0000
  O1          0.66820      0.25345      0.32186  1.0000
  O1          0.47020      0.66665      0.52635  1.0000
  O1          0.22518      0.55840      0.18777  1.0000
  O1          0.35417      0.79466      0.85584  1.0000
  O3          0.13462      0.21504      0.97860  1.0000
  O2          0.80147      0.92243      0.30710  1.0000
  O2          0.09164      0.87484      0.64040  1.0000
  O2          0.91338      0.78981      0.48300  1.0000
  O2          0.22735      0.11646      0.81566  1.0000
  O2          0.91122      0.11607      0.14854  1.0000
  O2          0.22554      0.13292      0.37365  1.0000
  O2          0.91653      0.78791      0.03942  1.0000
  O2          0.88298      0.08791      0.70611  1.0000
  O2          0.80179      0.90288      0.86513  1.0000
  O2          0.13155      0.22250      0.53305  1.0000
  O2          0.11557      0.89670      0.19821  1.0000
  O2          0.94536      0.86315      0.25907  1.0000
  O2          0.15897      0.07755      0.59208  1.0000
  O2          0.94845      0.07729      0.92470  1.0000
  O2          0.08143      0.14047      0.75539  1.0000
  O2          0.87786      0.93863      0.09090  1.0000
  O2          0.08316      0.93468      0.42310  1.0000
  O2          0.91358      0.19766      0.99159  1.0000
  O2          0.81866      0.72017      0.32658  1.0000
  O2          0.29852      0.08759      0.66037  1.0000
  O2          0.14785      0.82616      0.48513  1.0000
  O2          0.19633      0.31800      0.81502  1.0000
  O2          0.70197      0.88966      0.15014  1.0000
  O2          0.20571      0.91183      0.35489  1.0000
  O3          0.71524      0.80981      0.02682  1.0000
  O2          0.10529      0.29220      0.68901  1.0000
  O2          0.83346      0.13599      0.86382  1.0000
  O2          0.32867      0.18434      0.52943  1.0000
  O2          0.88272      0.69365      0.19595  1.0000
  O1          0.32521      0.61802      0.26572  1.0000
  O1          0.40276      0.70223      0.60300  1.0000
  O3          0.32794      0.70476      0.93468  1.0000
  O1          0.70524      0.39322      0.74821  1.0000
  O1          0.62124      0.30228      0.08134  1.0000
  O1          0.70793      0.31094      0.41239  1.0000
  O3          0.39162      0.36014      0.97593  1.0000
  O3          0.67598      0.04105      0.30041  1.0000
  O3          0.98246      0.63258      0.63817  1.0000
  O3          0.66853      0.66611      0.48531  1.0000
  O3          0.35322      0.99694      0.81917  1.0000
  O3          0.03199      0.35978      0.14495  1.0000
  O3          0.35444      0.37652      0.37729  1.0000
  O3          0.02477      0.65244      0.03828  1.0000
  O2          0.63645      0.97644      0.71222  1.0000
  O3          0.67865      0.65607      0.86775  1.0000
  O3          0.00893      0.34413      0.53124  1.0000
  O2          0.36321      0.01270      0.19414  1.0000
  O3          0.78908      0.30930      0.01334  1.0000
  O3          0.71537      0.48689      0.34821  1.0000
  O3          0.53137      0.22425      0.68260  1.0000
  O3          0.28648      0.73578      0.51934  1.0000
  O3          0.28353      0.54505      0.85170  1.0000
  O3          0.47192      0.74694      0.18179  1.0000
  O3          0.30166      0.77643      0.33013  1.0000
  O3          0.46865      0.68925      0.00047  1.0000
  O3          0.23550      0.52990      0.66796  1.0000
  O3          0.74192      0.27407      0.83099  1.0000
  O3          0.55840      0.27720      0.49590  1.0000
  O3          0.74287      0.46296      0.16231  1.0000
  O3          0.77758      0.54146      0.03849  1.0000
  O3          0.47326      0.24931      0.36725  1.0000
  O3          0.77082      0.22325      0.70229  1.0000
  O3          0.26258      0.47161      0.53244  1.0000
  O3          0.55090      0.78207      0.86254  1.0000
  O3          0.22787      0.76079      0.19945  1.0000
  O3          0.55310      0.79554      0.31425  1.0000
  O3          0.24715      0.48184      0.97611  1.0000
  O3          0.22881      0.76377      0.64691  1.0000
  O3          0.47557      0.24991      0.81675  1.0000
  O3          0.79698      0.54102      0.48261  1.0000
  O3          0.77856      0.23276      0.15135  1.0000
  O3          0.24457      0.34011      0.89825  1.0000
  O2          0.66682      0.89134      0.23491  1.0000
  O2          0.11983      0.76755      0.56873  1.0000
  O2          0.79537      0.67025      0.41115  1.0000
  O2          0.34775      0.11863      0.74471  1.0000
  O2          0.88371      0.21847      0.07618  1.0000
  O2          0.35966      0.24084      0.44576  1.0000
  O2          0.90799      0.66351      0.11236  1.0000
  O2          0.78270      0.11685      0.77967  1.0000
  O3          0.67678      0.79882      0.93655  1.0000
  O2          0.13844      0.34620      0.60491  1.0000
  O2          0.23654      0.90030      0.26985  1.0000
  O3          0.61467      0.57023      0.98249  1.0000
  O3          0.44009      0.02257      0.32224  1.0000
  O3          0.98991      0.40505      0.65268  1.0000
  O3          0.46308      0.42544      0.50949  1.0000
  O3          0.59391      0.02903      0.84222  1.0000
  O3          0.98595      0.55568      0.17494  1.0000
  O3          0.58852      0.60575      0.36211  1.0000
  O3          0.03544      0.42424      0.02912  1.0000
  O2          0.42129      0.97947      0.69767  1.0000
  O3          0.43743      0.45734      0.83774  1.0000
  O3          0.04427      0.58428      0.50510  1.0000
  O2          0.56834      0.99381      0.17690  1.0000
  O3          0.57110      0.14781      0.24055  1.0000
  O1          0.86829      0.43695      0.57476  1.0000
  O3          0.56028      0.41652      0.91201  1.0000
  O3          0.44849      0.86426      0.76995  1.0000
  O1          0.15754      0.59564      0.10269  1.0000
  O1          0.43618      0.57397      0.44032  1.0000
  F           0.42498      0.85087      0.24936  1.0000
  F           0.16963      0.57433      0.58282  1.0000
  F           0.44731      0.58966      0.91454  1.0000
  F           0.58254      0.16061      0.76706  1.0000
  F           0.85686      0.41995      0.09737  1.0000
  F           0.60124      0.43751      0.43203  1.0000
