data_cif

_audit_creation_method             'generated by GULP'

_symmetry_space_group_name_H-M     'P 1'
_symmetry_Int_Tables_number        1
_symmetry_cell_setting             triclinic

_cell_length_a                       12.1512
_cell_length_b                       12.1619
_cell_length_c                       29.8454
_cell_angle_alpha                   90.1257
_cell_angle_beta                    89.8224
_cell_angle_gamma                  120.0241

loop_
_atom_site_label
_atom_site_fract_x
_atom_site_fract_y
_atom_site_fract_z
_atom_site_occupancy
  Ge          0.69960      0.37570      0.03389  1.0000
  Ge          0.67570      0.33368      0.36454  1.0000
  Ge          0.71038      0.34932      0.70184  1.0000
  Ge          0.35745      0.66735      0.53339  1.0000
  Ge          0.38092      0.70357      0.87036  1.0000
  Si          0.33574      0.68067      0.20248  1.0000
  Ge          0.41884      0.72442      0.29850  1.0000
  Ge          0.34784      0.62900      0.96785  1.0000
  Ge          0.32036      0.70363      0.63172  1.0000
  Ge          0.63791      0.31263      0.80027  1.0000
  Ge          0.71075      0.40550      0.46325  1.0000
  Ge          0.72565      0.33602      0.13277  1.0000
  Si          0.52574      0.42046      0.96932  1.0000
  Si          0.63090      0.11585      0.30018  1.0000
  Ge          0.93267      0.52243      0.63412  1.0000
  Ge          0.53059      0.61401      0.46700  1.0000
  Ge          0.43068      0.92588      0.80311  1.0000
  Ge          0.11089      0.51099      0.13939  1.0000
  Ge          0.48462      0.56239      0.36104  1.0000
  Ge          0.12182      0.56374      0.03319  1.0000
  Ge          0.48367      0.92830      0.69688  1.0000
  Ge          0.57545      0.47664      0.86504  1.0000
  Ge          0.93607      0.47270      0.52790  1.0000
  Ge          0.56624      0.10855      0.19569  1.0000
  Si          0.28868      0.41578      0.85721  1.0000
  Ge          0.62432      0.87835      0.18841  1.0000
  Si          0.16246      0.75975      0.52122  1.0000
  Si          0.77111      0.62259      0.35420  1.0000
  Si          0.42292      0.15363      0.68979  1.0000
  Si          0.89287      0.27923      0.02397  1.0000
  Si          0.44085      0.32257      0.48581  1.0000
  Si          0.91131      0.60502      0.15508  1.0000
  Si          0.72224      0.12667      0.82136  1.0000
  Si          0.61746      0.70849      0.98792  1.0000
  Si          0.13399      0.43292      0.65304  1.0000
  Ge          0.33930      0.91648      0.32037  1.0000
  Si          0.24430      0.34557      0.95924  1.0000
  Si          0.70329      0.90680      0.29125  1.0000
  Si          0.14008      0.80734      0.62376  1.0000
  Si          0.81575      0.69013      0.45710  1.0000
  Si          0.35368      0.13311      0.79221  1.0000
  Si          0.90274      0.22668      0.12699  1.0000
  Si          0.39445      0.27645      0.38314  1.0000
  Si          0.92474      0.65582      0.05218  1.0000
  Si          0.77055      0.12677      0.71848  1.0000
  Si          0.66487      0.76351      0.88536  1.0000
  Si          0.13489      0.38492      0.55019  1.0000
  Si          0.28005      0.90490      0.21708  1.0000
  Si          0.97584      0.11367      0.97148  1.0000
  Si          0.93653      0.87303      0.30405  1.0000
  Si          0.17739      0.07680      0.63764  1.0000
  Si          0.08183      0.92712      0.47111  1.0000
  Si          0.12159      0.17088      0.80449  1.0000
  Si          0.87310      0.95704      0.13683  1.0000
  Si          0.17048      0.00416      0.37042  1.0000
  Si          0.87386      0.87600      0.03573  1.0000
  Si          0.04472      0.17983      0.70284  1.0000
  Si          0.88718      0.03814      0.87006  1.0000
  Si          0.18647      0.16258      0.53603  1.0000
  Si          0.00833      0.86012      0.20221  1.0000
  O2          0.94613      0.99004      0.00028  1.0000
  O2          0.05649      0.96348      0.33494  1.0000
  O2          0.08340      0.10114      0.66897  1.0000
  O2          0.10484      0.04250      0.50367  1.0000
  O2          0.00146      0.07591      0.83485  1.0000
  O2          0.97257      0.93993      0.16794  1.0000
  O1          0.38974      0.58736      0.32781  1.0000
  O1          0.45245      0.80332      0.66521  1.0000
  O1          0.24937      0.65926      0.00283  1.0000
  O1          0.66986      0.44260      0.83501  1.0000
  O1          0.59437      0.23757      0.16701  1.0000
  O1          0.81264      0.37528      0.49611  1.0000
  O3          0.57700      0.34337      0.99728  1.0000
  O1          0.79625      0.46962      0.66521  1.0000
  O3          0.71115      0.24716      0.32709  1.0000
  O1          0.47848      0.69945      0.49724  1.0000
  O3          0.24709      0.56341      0.17115  1.0000
  O1          0.34646      0.78977      0.83396  1.0000
  O2          0.12605      0.21139      0.97643  1.0000
  O2          0.83668      0.92249      0.30952  1.0000
  O2          0.12676      0.92734      0.64021  1.0000
  O2          0.93361      0.82371      0.47440  1.0000
  O2          0.22047      0.12061      0.80840  1.0000
  O2          0.90714      0.10242      0.14379  1.0000
  O2          0.26735      0.15369      0.36327  1.0000
  O2          0.93426      0.78521      0.03205  1.0000
  O2          0.89406      0.12267      0.69875  1.0000
  O2          0.79330      0.88755      0.86659  1.0000
  O2          0.13155      0.25751      0.53077  1.0000
  O2          0.15608      0.90410      0.19551  1.0000
  O2          0.98167      0.88583      0.25277  1.0000
  O2          0.17110      0.11603      0.58696  1.0000
  O2          0.94251      0.07549      0.91990  1.0000
  O2          0.07977      0.16445      0.75326  1.0000
  O2          0.89455      0.93472      0.08514  1.0000
  O2          0.11540      0.97802      0.42062  1.0000
  O2          0.89500      0.17782      0.98856  1.0000
  O2          0.87230      0.72590      0.31870  1.0000
  O2          0.32289      0.15588      0.65399  1.0000
  O2          0.16443      0.86237      0.48546  1.0000
  O2          0.18656      0.31616      0.82110  1.0000
  O3          0.72858      0.86624      0.15028  1.0000
  O3          0.24443      0.92934      0.36141  1.0000
  O2          0.72412      0.79417      0.02478  1.0000
  O2          0.11980      0.32783      0.68964  1.0000
  O2          0.81304      0.11263      0.85802  1.0000
  O2          0.33434      0.23196      0.52225  1.0000
  O2          0.92367      0.71074      0.19121  1.0000
  O3          0.32548      0.63108      0.25232  1.0000
  O1          0.41606      0.71220      0.58587  1.0000
  O1          0.33486      0.71670      0.92282  1.0000
  O1          0.72471      0.40823      0.75445  1.0000
  O1          0.63491      0.32790      0.08558  1.0000
  O1          0.71841      0.31803      0.41704  1.0000
  O2          0.37252      0.34799      0.97661  1.0000
  O2          0.70141      0.03362      0.30818  1.0000
  O3          0.01657      0.68509      0.64358  1.0000
  O3          0.69293      0.69069      0.47672  1.0000
  O3          0.35289      0.01074      0.81270  1.0000
  O3          0.02593      0.34783      0.14779  1.0000
  O3          0.38715      0.39859      0.37183  1.0000
  O3          0.05365      0.66090      0.04121  1.0000
  O3          0.64886      0.99757      0.70555  1.0000
  O3          0.67036      0.64259      0.86974  1.0000
  O3          0.00597      0.37757      0.53732  1.0000
  O3          0.40045      0.03424      0.20348  1.0000
  O3          0.76076      0.27668      0.01809  1.0000
  O3          0.77691      0.49466      0.34978  1.0000
  O3          0.55015      0.28771      0.68620  1.0000
  O3          0.29635      0.76605      0.51730  1.0000
  O3          0.28450      0.54410      0.85299  1.0000
  O3          0.48222      0.73685      0.18552  1.0000
  O1          0.34260      0.78243      0.33351  1.0000
  O3          0.49072      0.70821      0.00079  1.0000
  O3          0.25839      0.56274      0.66542  1.0000
  O3          0.71770      0.25140      0.83373  1.0000
  O3          0.57068      0.32771      0.49787  1.0000
  O3          0.78367      0.47713      0.16610  1.0000
  O3          0.80727      0.53687      0.02823  1.0000
  O3          0.51398      0.27938      0.35893  1.0000
  O3          0.76855      0.24484      0.69563  1.0000
  O3          0.25309      0.50480      0.52708  1.0000
  O3          0.54480      0.76535      0.86441  1.0000
  O2          0.28847      0.78510      0.19694  1.0000
  O3          0.58735      0.78251      0.31180  1.0000
  O3          0.23570      0.46026      0.98039  1.0000
  O3          0.26604      0.81719      0.64335  1.0000
  O3          0.47010      0.25968      0.81134  1.0000
  O3          0.82517      0.57356      0.47623  1.0000
  O3          0.77700      0.22057      0.14538  1.0000
  O2          0.23672      0.34275      0.90473  1.0000
  O3          0.70936      0.90056      0.23729  1.0000
  O2          0.13809      0.80803      0.56898  1.0000
  O2          0.81926      0.69339      0.40225  1.0000
  O2          0.34992      0.12830      0.73748  1.0000
  O2          0.90883      0.22795      0.07222  1.0000
  O2          0.39104      0.25438      0.43707  1.0000
  O2          0.90322      0.65929      0.10590  1.0000
  O2          0.78959      0.14160      0.77255  1.0000
  O2          0.67183      0.77714      0.93975  1.0000
  O2          0.15008      0.38146      0.60428  1.0000
  O3          0.25809      0.89657      0.27045  1.0000
  O2          0.59522      0.56465      0.98924  1.0000
  O3          0.49013      0.04947      0.32203  1.0000
  O3          0.00784      0.44481      0.65580  1.0000
  O3          0.45252      0.46054      0.48823  1.0000
  O3          0.58408      0.00094      0.82434  1.0000
  O3          0.03439      0.58840      0.15984  1.0000
  O3          0.62998      0.58791      0.34104  1.0000
  O3          0.00364      0.41931      0.01189  1.0000
  O3          0.45733      0.04703      0.67642  1.0000
  O3          0.42899      0.44576      0.84467  1.0000
  O3          0.05553      0.61869      0.50800  1.0000
  O1          0.59674      0.99615      0.17280  1.0000
  O3          0.63621      0.14924      0.24851  1.0000
  O1          0.88599      0.49238      0.57988  1.0000
  O3          0.55710      0.41215      0.91827  1.0000
  O1          0.41399      0.87923      0.74882  1.0000
  O1          0.16409      0.54098      0.08581  1.0000
  O1          0.50347      0.63310      0.41267  1.0000
  F           0.47812      0.86864      0.26195  1.0000
  F           0.17725      0.61918      0.59454  1.0000
  F           0.42819      0.57308      0.92862  1.0000
  F           0.57917      0.16928      0.76311  1.0000
  F           0.87236      0.41950      0.09712  1.0000
  F           0.62839      0.46605      0.42696  1.0000
