data_cif

_audit_creation_method             'generated by GULP'

_symmetry_space_group_name_H-M     'P 1'
_symmetry_Int_Tables_number        1
_symmetry_cell_setting             triclinic

_cell_length_a                       12.1640
_cell_length_b                       12.1604
_cell_length_c                       29.9466
_cell_angle_alpha                   88.7924
_cell_angle_beta                    90.9359
_cell_angle_gamma                  120.1264

loop_
_atom_site_label
_atom_site_fract_x
_atom_site_fract_y
_atom_site_fract_z
_atom_site_occupancy
  Si          0.69960      0.37570      0.03389  1.0000
  Ge          0.66321      0.31229      0.37161  1.0000
  Ge          0.70497      0.30616      0.70138  1.0000
  Ge          0.32647      0.62780      0.52477  1.0000
  Ge          0.41259      0.68288      0.85714  1.0000
  Ge          0.33360      0.68978      0.18992  1.0000
  Ge          0.39917      0.70156      0.28954  1.0000
  Si          0.33962      0.63801      0.96029  1.0000
  Ge          0.31681      0.67158      0.62377  1.0000
  Ge          0.64111      0.28622      0.80575  1.0000
  Ge          0.69385      0.39518      0.46783  1.0000
  Ge          0.73545      0.33136      0.13619  1.0000
  Ge          0.52861      0.43126      0.97144  1.0000
  Ge          0.61035      0.08618      0.30792  1.0000
  Ge          0.93056      0.48868      0.63759  1.0000
  Ge          0.50023      0.58846      0.45696  1.0000
  Ge          0.45176      0.90353      0.78904  1.0000
  Ge          0.11785      0.52605      0.11903  1.0000
  Ge          0.46162      0.53165      0.35131  1.0000
  Ge          0.11872      0.58709      0.01916  1.0000
  Ge          0.48689      0.88943      0.68831  1.0000
  Ge          0.60253      0.45997      0.87361  1.0000
  Si          0.90973      0.43080      0.53438  1.0000
  Ge          0.56347      0.10622      0.20273  1.0000
  Si          0.31780      0.39173      0.85316  1.0000
  Si          0.62792      0.88719      0.18694  1.0000
  Si          0.12660      0.71658      0.52081  1.0000
  Si          0.74845      0.59468      0.35080  1.0000
  Si          0.42051      0.11239      0.68376  1.0000
  Ge          0.89954      0.29205      0.01476  1.0000
  Si          0.41731      0.30236      0.48237  1.0000
  Si          0.93808      0.61674      0.14810  1.0000
  Si          0.72334      0.08159      0.81689  1.0000
  Ge          0.61605      0.71098      0.98543  1.0000
  Si          0.13578      0.40315      0.65092  1.0000
  Si          0.31617      0.88113      0.31928  1.0000
  Si          0.25323      0.34695      0.95460  1.0000
  Si          0.68597      0.88090      0.28943  1.0000
  Si          0.13381      0.77419      0.62250  1.0000
  Si          0.78607      0.67389      0.45164  1.0000
  Si          0.35338      0.08326      0.78553  1.0000
  Si          0.93662      0.24513      0.11732  1.0000
  Si          0.37781      0.24757      0.38026  1.0000
  Si          0.91862      0.66163      0.04540  1.0000
  Si          0.77121      0.08655      0.71409  1.0000
  Si          0.69244      0.74531      0.88357  1.0000
  Si          0.10970      0.34671      0.54823  1.0000
  Si          0.27781      0.91025      0.21672  1.0000
  Si          0.97498      0.11853      0.96773  1.0000
  Si          0.91918      0.84363      0.30201  1.0000
  Si          0.17397      0.04421      0.63447  1.0000
  Si          0.05666      0.89534      0.46736  1.0000
  Si          0.14031      0.14641      0.80159  1.0000
  Si          0.87721      0.96896      0.13601  1.0000
  Si          0.15565      0.97226      0.36716  1.0000
  Si          0.86331      0.88676      0.03508  1.0000
  Si          0.05061      0.15021      0.70089  1.0000
  Si          0.90752      0.02107      0.86801  1.0000
  Si          0.16517      0.12974      0.53322  1.0000
  Si          0.00456      0.85711      0.20094  1.0000
  O2          0.95428      0.00771      0.00341  1.0000
  O2          0.03682      0.93415      0.33388  1.0000
  O2          0.08841      0.07136      0.66796  1.0000
  O2          0.08984      0.01155      0.50015  1.0000
  O2          0.02653      0.06322      0.83564  1.0000
  O2          0.96501      0.94008      0.16939  1.0000
  O1          0.36779      0.55858      0.31737  1.0000
  O1          0.45812      0.77590      0.65174  1.0000
  O3          0.23976      0.67210      0.98095  1.0000
  O1          0.68262      0.41159      0.83992  1.0000
  O1          0.61051      0.24024      0.17112  1.0000
  O3          0.78686      0.35903      0.50583  1.0000
  O3          0.57382      0.34417      0.00938  1.0000
  O1          0.79931      0.43938      0.67068  1.0000
  O1          0.69646      0.21554      0.34091  1.0000
  O1          0.43629      0.66592      0.48418  1.0000
  O1          0.26131      0.58493      0.14975  1.0000
  O1          0.37057      0.76133      0.82200  1.0000
  O2          0.11886      0.23568      0.97399  1.0000
  O2          0.81698      0.88900      0.30649  1.0000
  O2          0.12351      0.89473      0.63921  1.0000
  O2          0.90453      0.81109      0.46613  1.0000
  O2          0.22885      0.08398      0.80313  1.0000
  O2          0.93346      0.11914      0.13797  1.0000
  O2          0.25342      0.12147      0.36044  1.0000
  O2          0.89808      0.77608      0.02644  1.0000
  O2          0.90007      0.09297      0.69584  1.0000
  O2          0.82058      0.86933      0.86409  1.0000
  O2          0.09787      0.21533      0.53004  1.0000
  O2          0.15619      0.91948      0.19800  1.0000
  O2          0.96505      0.85982      0.25133  1.0000
  O2          0.15752      0.08032      0.58389  1.0000
  O2          0.95678      0.06239      0.91834  1.0000
  O2          0.08575      0.13749      0.75183  1.0000
  O2          0.88917      0.92779      0.08654  1.0000
  O2          0.10907      0.94601      0.41801  1.0000
  O3          0.88529      0.17595      0.97708  1.0000
  O2          0.85481      0.69499      0.31569  1.0000
  O2          0.32303      0.12187      0.64776  1.0000
  O2          0.11643      0.81013      0.48378  1.0000
  O2          0.22030      0.29263      0.81619  1.0000
  O2          0.73029      0.89433      0.15065  1.0000
  O2          0.22236      0.89042      0.35537  1.0000
  O3          0.71804      0.83157      0.02234  1.0000
  O2          0.12800      0.29829      0.68704  1.0000
  O2          0.82840      0.08885      0.85282  1.0000
  O2          0.31157      0.21147      0.51899  1.0000
  O2          0.93498      0.71224      0.18454  1.0000
  O1          0.31388      0.62196      0.24185  1.0000
  O1          0.39934      0.67881      0.57484  1.0000
  O3          0.37226      0.69723      0.91140  1.0000
  O1          0.71262      0.34987      0.75562  1.0000
  O3          0.66967      0.33686      0.08605  1.0000
  O1          0.70910      0.30731      0.42505  1.0000
  O3          0.36213      0.33402      0.97999  1.0000
  O3          0.68790      0.99986      0.31278  1.0000
  O3          0.00827      0.65228      0.64191  1.0000
  O3          0.66193      0.67336      0.46907  1.0000
  O3          0.34399      0.95612      0.80418  1.0000
  O3          0.06743      0.36368      0.13257  1.0000
  O3          0.36923      0.36640      0.36320  1.0000
  O3          0.04750      0.68115      0.02481  1.0000
  O3          0.65440      0.95869      0.69768  1.0000
  O3          0.70883      0.62467      0.87607  1.0000
  O2          0.97976      0.34537      0.53576  1.0000
  O3          0.40083      0.04557      0.20772  1.0000
  O3          0.75790      0.29109      0.01509  1.0000
  O3          0.75905      0.46903      0.35126  1.0000
  O3          0.54874      0.24772      0.68373  1.0000
  O3          0.25434      0.71776      0.50987  1.0000
  O3          0.31786      0.52058      0.84493  1.0000
  O3          0.50006      0.75807      0.17960  1.0000
  O3          0.31691      0.75189      0.32648  1.0000
  O3          0.46862      0.70033      0.98964  1.0000
  O3          0.26702      0.53048      0.65782  1.0000
  O3          0.70665      0.20048      0.82935  1.0000
  O3          0.54827      0.31374      0.49831  1.0000
  O3          0.81543      0.48100      0.15942  1.0000
  O2          0.80630      0.52621      0.02824  1.0000
  O3          0.50082      0.24828      0.36147  1.0000
  O3          0.76358      0.20525      0.69270  1.0000
  O3          0.22573      0.46268      0.52342  1.0000
  O3          0.57048      0.72193      0.85494  1.0000
  O3          0.29004      0.80730      0.18895  1.0000
  O3          0.56636      0.75059      0.30460  1.0000
  O2          0.26278      0.48225      0.96482  1.0000
  O3          0.25973      0.77990      0.64038  1.0000
  O3          0.47633      0.20781      0.80477  1.0000
  O3          0.79930      0.56248      0.47498  1.0000
  O3          0.81662      0.24842      0.13853  1.0000
  O2          0.25665      0.32671      0.90131  1.0000
  O2          0.69597      0.89871      0.23507  1.0000
  O2          0.12896      0.77989      0.56796  1.0000
  O2          0.78947      0.67207      0.39723  1.0000
  O2          0.34759      0.08548      0.73103  1.0000
  O3          0.92328      0.22848      0.06384  1.0000
  O2          0.36862      0.23144      0.43450  1.0000
  O2          0.92434      0.67118      0.09930  1.0000
  O2          0.78844      0.10010      0.76798  1.0000
  O3          0.68974      0.78000      0.93479  1.0000
  O2          0.12764      0.34326      0.60180  1.0000
  O2          0.25618      0.88186      0.27001  1.0000
  O1          0.60932      0.57395      0.00199  1.0000
  O3          0.45534      0.00362      0.32691  1.0000
  O3          0.01630      0.42251      0.66022  1.0000
  O3          0.42414      0.43797      0.48174  1.0000
  O3          0.59391      0.95068      0.82251  1.0000
  O3          0.06504      0.61089      0.15320  1.0000
  O3          0.60853      0.55619      0.33395  1.0000
  O1          0.01716      0.43822      0.99791  1.0000
  O3          0.45553      0.00881      0.66919  1.0000
  O3          0.45677      0.41133      0.84669  1.0000
  O2          0.01045      0.57302      0.51620  1.0000
  O3          0.60259      0.00384      0.17771  1.0000
  O1          0.62810      0.14813      0.25486  1.0000
  O3          0.87184      0.43914      0.58505  1.0000
  O1          0.59147      0.39453      0.92522  1.0000
  O1          0.41941      0.82425      0.73873  1.0000
  O1          0.19299      0.58732      0.06787  1.0000
  O1          0.47661      0.60292      0.40204  1.0000
  F           0.46676      0.85729      0.25960  1.0000
  F           0.16470      0.58496      0.59174  1.0000
  F           0.49287      0.53399      0.92864  1.0000
  F           0.54981      0.06211      0.75805  1.0000
  F           0.95844      0.46341      0.08689  1.0000
  F           0.60438      0.44297      0.42499  1.0000
