data_cif

_audit_creation_method             'generated by GULP'

_symmetry_space_group_name_H-M     'P 1'
_symmetry_Int_Tables_number        1
_symmetry_cell_setting             triclinic

_cell_length_a                       12.1419
_cell_length_b                       12.1207
_cell_length_c                       29.8932
_cell_angle_alpha                   89.8791
_cell_angle_beta                    90.0374
_cell_angle_gamma                  119.9895

loop_
_atom_site_label
_atom_site_fract_x
_atom_site_fract_y
_atom_site_fract_z
_atom_site_occupancy
  Ge          0.69960      0.37570      0.03389  1.0000
  Ge          0.64024      0.31860      0.36743  1.0000
  Ge          0.69797      0.31873      0.70082  1.0000
  Ge          0.32146      0.62945      0.54857  1.0000
  Ge          0.38922      0.68714      0.88429  1.0000
  Ge          0.33007      0.69286      0.21711  1.0000
  Ge          0.39140      0.69156      0.31528  1.0000
  Si          0.32792      0.63578      0.98225  1.0000
  Ge          0.32556      0.68948      0.64704  1.0000
  Ge          0.64347      0.31678      0.79961  1.0000
  Ge          0.69243      0.37178      0.46627  1.0000
  Ge          0.70190      0.32255      0.13257  1.0000
  Si          0.54100      0.42456      0.96414  1.0000
  Si          0.59310      0.11193      0.29778  1.0000
  Si          0.90587      0.47718      0.63094  1.0000
  Ge          0.49655      0.57012      0.48836  1.0000
  Ge          0.44562      0.92150      0.82496  1.0000
  Ge          0.09736      0.51924      0.15657  1.0000
  Si          0.43838      0.52813      0.38450  1.0000
  Ge          0.11498      0.57676      0.05052  1.0000
  Ge          0.48483      0.90335      0.71886  1.0000
  Ge          0.58415      0.49099      0.86001  1.0000
  Ge          0.92474      0.43198      0.52716  1.0000
  Ge          0.52687      0.09055      0.19388  1.0000
  Si          0.29562      0.42139      0.85242  1.0000
  Si          0.59789      0.87126      0.18772  1.0000
  Si          0.14430      0.72162      0.52048  1.0000
  Si          0.72261      0.60812      0.36408  1.0000
  Si          0.40655      0.11284      0.69739  1.0000
  Si          0.90375      0.28893      0.03063  1.0000
  Si          0.42493      0.27897      0.49495  1.0000
  Si          0.87825      0.58972      0.16145  1.0000
  Si          0.73598      0.14171      0.82869  1.0000
  Ge          0.61619      0.71095      0.98548  1.0000
  Ge          0.11409      0.39654      0.65162  1.0000
  Ge          0.30578      0.90042      0.31962  1.0000
  Ge          0.25701      0.35401      0.95628  1.0000
  Si          0.66980      0.90537      0.28967  1.0000
  Si          0.11541      0.76023      0.62266  1.0000
  Si          0.78362      0.65492      0.46594  1.0000
  Si          0.36168      0.12464      0.79970  1.0000
  Si          0.89339      0.23214      0.13263  1.0000
  Si          0.35915      0.24473      0.39266  1.0000
  Si          0.90793      0.65672      0.05898  1.0000
  Si          0.77188      0.11051      0.72620  1.0000
  Si          0.67163      0.77933      0.88327  1.0000
  Si          0.12755      0.34599      0.54914  1.0000
  Si          0.23930      0.88618      0.21698  1.0000
  Si          0.98467      0.12140      0.97716  1.0000
  Si          0.89245      0.85885      0.30974  1.0000
  Si          0.15703      0.02922      0.64308  1.0000
  Si          0.05443      0.88618      0.47536  1.0000
  Si          0.13214      0.16634      0.80841  1.0000
  Si          0.85197      0.96079      0.14270  1.0000
  Si          0.13093      0.97691      0.37479  1.0000
  Si          0.86220      0.88274      0.04216  1.0000
  Si          0.04008      0.14816      0.70814  1.0000
  Si          0.89983      0.05204      0.87513  1.0000
  Si          0.17178      0.11823      0.54176  1.0000
  Si          0.96715      0.84184      0.20867  1.0000
  O2          0.94690      0.99864      0.00822  1.0000
  O2          0.01187      0.94388      0.34198  1.0000
  O2          0.06773      0.05812      0.67529  1.0000
  O2          0.08677      0.99781      0.51049  1.0000
  O2          0.01904      0.08790      0.84324  1.0000
  O2          0.93188      0.92715      0.17728  1.0000
  O3          0.36203      0.57798      0.35596  1.0000
  O1          0.43502      0.76885      0.68824  1.0000
  O3          0.25243      0.66494      0.02011  1.0000
  O1          0.67640      0.45814      0.82803  1.0000
  O1          0.56054      0.21475      0.16110  1.0000
  O1          0.80003      0.33909      0.49498  1.0000
  O3          0.59484      0.34591      0.99022  1.0000
  O3          0.77656      0.42844      0.65833  1.0000
  O3          0.67239      0.24211      0.32468  1.0000
  O1          0.46198      0.66141      0.52025  1.0000
  O1          0.21957      0.55054      0.19014  1.0000
  O1          0.35638      0.79944      0.85913  1.0000
  O3          0.13436      0.21392      0.97920  1.0000
  O2          0.80416      0.92347      0.30805  1.0000
  O2          0.09922      0.87695      0.64187  1.0000
  O2          0.90692      0.78553      0.48295  1.0000
  O2          0.23225      0.11906      0.81727  1.0000
  O2          0.90011      0.10874      0.15049  1.0000
  O2          0.22716      0.12949      0.37256  1.0000
  O2          0.91906      0.78773      0.04022  1.0000
  O2          0.88903      0.09599      0.70698  1.0000
  O2          0.80135      0.90434      0.86586  1.0000
  O2          0.12353      0.21679      0.53125  1.0000
  O2          0.11425      0.89039      0.19916  1.0000
  O2          0.94371      0.85912      0.26040  1.0000
  O2          0.15281      0.07735      0.59351  1.0000
  O2          0.94510      0.07641      0.92631  1.0000
  O2          0.07976      0.13394      0.75816  1.0000
  O2          0.87876      0.93690      0.09217  1.0000
  O2          0.07851      0.93928      0.42505  1.0000
  O2          0.91342      0.19630      0.99352  1.0000
  O2          0.81028      0.71409      0.32704  1.0000
  O2          0.30154      0.10076      0.66077  1.0000
  O2          0.14046      0.82089      0.48455  1.0000
  O2          0.19733      0.31850      0.81607  1.0000
  O2          0.70092      0.87475      0.15206  1.0000
  O3          0.20587      0.90687      0.36057  1.0000
  O3          0.71680      0.80798      0.02798  1.0000
  O3          0.11147      0.29229      0.69279  1.0000
  O2          0.83678      0.13882      0.86397  1.0000
  O2          0.32110      0.17935      0.53045  1.0000
  O2          0.88014      0.69267      0.19677  1.0000
  O1          0.32098      0.61221      0.26763  1.0000
  O1          0.40369      0.69712      0.59905  1.0000
  O3          0.32657      0.70293      0.93672  1.0000
  O1          0.70662      0.39829      0.74825  1.0000
  O1          0.61991      0.30401      0.08133  1.0000
  O1          0.70814      0.30594      0.41499  1.0000
  O3          0.39173      0.35682      0.97571  1.0000
  O2          0.66531      0.03058      0.30493  1.0000
  O2          0.99206      0.63011      0.63921  1.0000
  O3          0.66315      0.65969      0.48387  1.0000
  O3          0.35499      0.99704      0.81647  1.0000
  O3          0.02220      0.35319      0.14803  1.0000
  O2          0.36384      0.37485      0.37789  1.0000
  O3          0.02821      0.65224      0.03999  1.0000
  O3          0.64696      0.98865      0.70864  1.0000
  O3          0.67803      0.65721      0.86789  1.0000
  O3          0.99975      0.34057      0.53358  1.0000
  O3          0.36052      0.01336      0.20008  1.0000
  O3          0.78898      0.30806      0.01463  1.0000
  O3          0.71299      0.47751      0.34882  1.0000
  O3          0.54038      0.22988      0.68168  1.0000
  O3          0.27953      0.73071      0.51849  1.0000
  O3          0.28547      0.54763      0.85258  1.0000
  O3          0.47154      0.73593      0.18592  1.0000
  O1          0.31941      0.77305      0.33634  1.0000
  O3          0.47075      0.69019      0.00161  1.0000
  O1          0.23994      0.53686      0.66865  1.0000
  O3          0.74684      0.27803      0.83033  1.0000
  O3          0.55122      0.27054      0.49799  1.0000
  O3          0.74151      0.46514      0.16299  1.0000
  O3          0.78124      0.54153      0.03883  1.0000
  O3          0.47379      0.23814      0.36971  1.0000
  O3          0.78100      0.23569      0.70497  1.0000
  O3          0.25358      0.46604      0.53014  1.0000
  O3          0.55122      0.78449      0.86428  1.0000
  O3          0.23229      0.75892      0.19880  1.0000
  O3          0.55763      0.78276      0.31279  1.0000
  O3          0.24950      0.48055      0.97832  1.0000
  O3          0.23987      0.77113      0.64409  1.0000
  O3          0.48055      0.25114      0.81861  1.0000
  O3          0.79322      0.53637      0.48409  1.0000
  O3          0.76810      0.22580      0.15208  1.0000
  O3          0.24448      0.34190      0.89911  1.0000
  O2          0.67034      0.89582      0.23585  1.0000
  O2          0.11962      0.76920      0.56869  1.0000
  O2          0.79495      0.66128      0.41104  1.0000
  O2          0.35771      0.13547      0.74495  1.0000
  O2          0.87989      0.21547      0.07796  1.0000
  O2          0.35445      0.22953      0.44641  1.0000
  O2          0.90984      0.66304      0.11314  1.0000
  O2          0.77955      0.11291      0.78036  1.0000
  O3          0.67828      0.79811      0.93758  1.0000
  O3          0.13519      0.33366      0.60323  1.0000
  O3          0.22215      0.88102      0.27120  1.0000
  O3          0.61334      0.56816      0.98359  1.0000
  O3          0.45311      0.03609      0.31969  1.0000
  O3          0.97733      0.40629      0.65113  1.0000
  O3          0.45487      0.41966      0.50836  1.0000
  O3          0.59538      0.03503      0.84387  1.0000
  O3          0.98390      0.55427      0.17654  1.0000
  O2          0.58191      0.59117      0.36460  1.0000
  O3          0.03451      0.42183      0.03110  1.0000
  O3          0.41201      0.98403      0.69763  1.0000
  O3          0.43771      0.45796      0.83836  1.0000
  O3          0.03721      0.58029      0.50669  1.0000
  O3          0.56467      0.97911      0.17389  1.0000
  O3          0.59272      0.14510      0.24658  1.0000
  O3          0.87145      0.44765      0.57960  1.0000
  O3          0.56200      0.41782      0.91207  1.0000
  O1          0.45400      0.86224      0.77323  1.0000
  O1          0.15597      0.58930      0.10489  1.0000
  O3          0.43463      0.56263      0.43519  1.0000
  F           0.42151      0.84638      0.25148  1.0000
  F           0.16922      0.56882      0.58386  1.0000
  F           0.44751      0.59042      0.91567  1.0000
  F           0.58555      0.16345      0.76686  1.0000
  F           0.85459      0.41700      0.09944  1.0000
  F           0.59846      0.42953      0.43371  1.0000
