data_cif

_audit_creation_method             'generated by GULP'

_symmetry_space_group_name_H-M     'P 1'
_symmetry_Int_Tables_number        1
_symmetry_cell_setting             triclinic

_cell_length_a                       12.1552
_cell_length_b                       12.1707
_cell_length_c                       29.8865
_cell_angle_alpha                   90.5802
_cell_angle_beta                    90.2435
_cell_angle_gamma                  120.0792

loop_
_atom_site_label
_atom_site_fract_x
_atom_site_fract_y
_atom_site_fract_z
_atom_site_occupancy
  Ge          0.69960      0.37570      0.03389  1.0000
  Ge          0.62848      0.31035      0.36703  1.0000
  Ge          0.67242      0.31296      0.70443  1.0000
  Ge          0.32901      0.64530      0.54922  1.0000
  Ge          0.35658      0.69037      0.88087  1.0000
  Si          0.31385      0.68116      0.21357  1.0000
  Ge          0.39238      0.71529      0.31535  1.0000
  Ge          0.33162      0.61436      0.97830  1.0000
  Ge          0.27427      0.67805      0.64571  1.0000
  Ge          0.61516      0.30098      0.80377  1.0000
  Ge          0.67874      0.37964      0.46686  1.0000
  Ge          0.70049      0.32499      0.13282  1.0000
  Si          0.52112      0.41064      0.96911  1.0000
  Ge          0.58362      0.09521      0.29598  1.0000
  Ge          0.88707      0.48378      0.63548  1.0000
  Ge          0.50443      0.59096      0.48553  1.0000
  Ge          0.40873      0.91585      0.81623  1.0000
  Ge          0.08650      0.50093      0.15227  1.0000
  Ge          0.44216      0.54143      0.38012  1.0000
  Ge          0.11714      0.56384      0.04703  1.0000
  Si          0.45034      0.89633      0.71248  1.0000
  Ge          0.55421      0.47092      0.86486  1.0000
  Ge          0.90830      0.44273      0.52950  1.0000
  Ge          0.53339      0.10357      0.19463  1.0000
  Si          0.26718      0.40676      0.86035  1.0000
  Ge          0.59710      0.87579      0.19289  1.0000
  Si          0.13256      0.73029      0.52853  1.0000
  Si          0.72582      0.60484      0.36412  1.0000
  Si          0.38288      0.11253      0.69932  1.0000
  Si          0.89121      0.27743      0.03193  1.0000
  Si          0.41524      0.29767      0.49663  1.0000
  Si          0.88204      0.59042      0.16189  1.0000
  Si          0.70088      0.11988      0.83034  1.0000
  Si          0.60644      0.69450      0.99267  1.0000
  Si          0.09012      0.40178      0.66021  1.0000
  Si          0.31291      0.91989      0.32679  1.0000
  Ge          0.23670      0.33190      0.96291  1.0000
  Si          0.68065      0.91310      0.29537  1.0000
  Si          0.08825      0.76974      0.62962  1.0000
  Si          0.78603      0.66574      0.46679  1.0000
  Si          0.32869      0.12024      0.80133  1.0000
  Si          0.88073      0.21758      0.13453  1.0000
  Si          0.35136      0.25655      0.39386  1.0000
  Si          0.91791      0.65335      0.06007  1.0000
  Si          0.73489      0.09579      0.72721  1.0000
  Si          0.64388      0.75517      0.89095  1.0000
  Si          0.10812      0.35974      0.55787  1.0000
  Si          0.25439      0.90319      0.22403  1.0000
  Si          0.96515      0.10240      0.97882  1.0000
  Si          0.89561      0.85175      0.31247  1.0000
  Si          0.13612      0.04036      0.64480  1.0000
  Si          0.05597      0.89956      0.47937  1.0000
  Si          0.09678      0.15869      0.81104  1.0000
  Si          0.84527      0.94571      0.14461  1.0000
  Si          0.13283      0.98291      0.37826  1.0000
  Si          0.85892      0.86658      0.04390  1.0000
  Si          0.00705      0.14925      0.71000  1.0000
  Si          0.86601      0.03094      0.87752  1.0000
  Si          0.16172      0.13748      0.54444  1.0000
  Si          0.97403      0.84306      0.21114  1.0000
  O2          0.92595      0.97911      0.00863  1.0000
  O2          0.01375      0.94014      0.34506  1.0000
  O2          0.04826      0.07325      0.67591  1.0000
  O2          0.08221      0.01851      0.51085  1.0000
  O2          0.97953      0.06873      0.84263  1.0000
  O2          0.93848      0.92514      0.17807  1.0000
  O1          0.35575      0.58866      0.34893  1.0000
  O3          0.40198      0.77330      0.68377  1.0000
  O1          0.24737      0.65264      0.01783  1.0000
  O1          0.64883      0.44033      0.83349  1.0000
  O1          0.55740      0.21873      0.15889  1.0000
  O1          0.78885      0.34886      0.49527  1.0000
  O3          0.58965      0.34182      0.99167  1.0000
  O1          0.74614      0.42213      0.66389  1.0000
  O1          0.66545      0.23985      0.32704  1.0000
  O1          0.46013      0.67773      0.51844  1.0000
  O3          0.21610      0.55246      0.18870  1.0000
  O1          0.32273      0.78414      0.84813  1.0000
  O3          0.11519      0.18576      0.98159  1.0000
  O2          0.80300      0.90935      0.31528  1.0000
  O2          0.06983      0.88855      0.64422  1.0000
  O2          0.90819      0.79717      0.48415  1.0000
  O2          0.19811      0.11219      0.81779  1.0000
  O2          0.88073      0.09176      0.15202  1.0000
  O2          0.22001      0.13473      0.37539  1.0000
  O2          0.92886      0.78421      0.04157  1.0000
  O2          0.85401      0.08356      0.70799  1.0000
  O2          0.76810      0.88131      0.87197  1.0000
  O2          0.11009      0.23475      0.53829  1.0000
  O2          0.12243      0.89013      0.20508  1.0000
  O2          0.94563      0.86127      0.26218  1.0000
  O2          0.14089      0.09033      0.59511  1.0000
  O2          0.92125      0.06217      0.92758  1.0000
  O2          0.04986      0.13923      0.75986  1.0000
  O2          0.87230      0.92408      0.09350  1.0000
  O2          0.08566      0.94323      0.42840  1.0000
  O2          0.89952      0.18167      0.99576  1.0000
  O2          0.82273      0.70589      0.32762  1.0000
  O2          0.28022      0.10307      0.66245  1.0000
  O2          0.13987      0.83585      0.49335  1.0000
  O2          0.16249      0.30788      0.82364  1.0000
  O3          0.69850      0.85757      0.15537  1.0000
  O2          0.21346      0.91694      0.36353  1.0000
  O2          0.71138      0.77725      0.03087  1.0000
  O2          0.07331      0.29590      0.69651  1.0000
  O2          0.79597      0.11055      0.86659  1.0000
  O2          0.31084      0.20461      0.53273  1.0000
  O2          0.88976      0.69476      0.19799  1.0000
  O3          0.31681      0.64922      0.26526  1.0000
  O1          0.37867      0.69262      0.60274  1.0000
  O1          0.31439      0.70015      0.93436  1.0000
  O1          0.69233      0.38490      0.75510  1.0000
  O1          0.62301      0.32791      0.08321  1.0000
  O1          0.67412      0.29265      0.41940  1.0000
  O3          0.37349      0.33483      0.98213  1.0000
  O3          0.69289      0.04336      0.31141  1.0000
  O3          0.96336      0.64594      0.64688  1.0000
  O3          0.66838      0.66814      0.49033  1.0000
  O3          0.32590      0.99699      0.82145  1.0000
  O3          0.00257      0.33738      0.15787  1.0000
  O3          0.33946      0.37911      0.38466  1.0000
  O3          0.05081      0.66264      0.05349  1.0000
  O2          0.60598      0.96626      0.71468  1.0000
  O3          0.65061      0.63633      0.87334  1.0000
  O3          0.98123      0.35096      0.54077  1.0000
  O3          0.36611      0.02906      0.20482  1.0000
  O3          0.76031      0.27405      0.02229  1.0000
  O3          0.72712      0.47721      0.35719  1.0000
  O3          0.51052      0.24094      0.68942  1.0000
  O3          0.26873      0.74032      0.52880  1.0000
  O3          0.25792      0.53322      0.86129  1.0000
  O3          0.45453      0.73275      0.19419  1.0000
  O3          0.32654      0.79848      0.33921  1.0000
  O3          0.47965      0.68962      0.00820  1.0000
  O3          0.20975      0.53301      0.67612  1.0000
  O3          0.70494      0.25128      0.83777  1.0000
  O3          0.54501      0.29887      0.50408  1.0000
  O3          0.75241      0.46191      0.16883  1.0000
  O3          0.81043      0.53684      0.03121  1.0000
  O3          0.46724      0.26766      0.36606  1.0000
  O3          0.73647      0.21236      0.70308  1.0000
  O3          0.23115      0.48267      0.53909  1.0000
  O3          0.51952      0.75424      0.87257  1.0000
  O2          0.26493      0.78209      0.20623  1.0000
  O3          0.55653      0.79189      0.31608  1.0000
  O1          0.22280      0.44939      0.98816  1.0000
  O3          0.21188      0.78307      0.65311  1.0000
  O3          0.44845      0.24778      0.81911  1.0000
  O3          0.79650      0.54695      0.48198  1.0000
  O3          0.75284      0.21194      0.14898  1.0000
  O3          0.21956      0.32342      0.90509  1.0000
  O3          0.68468      0.90127      0.24156  1.0000
  O2          0.09575      0.77266      0.57513  1.0000
  O2          0.78045      0.67477      0.41231  1.0000
  O2          0.31988      0.11274      0.74673  1.0000
  O2          0.89826      0.22129      0.08019  1.0000
  O2          0.35611      0.23641      0.44727  1.0000
  O2          0.88305      0.64829      0.11270  1.0000
  O2          0.75534      0.11343      0.78096  1.0000
  O2          0.65482      0.76761      0.94539  1.0000
  O2          0.11340      0.35230      0.61220  1.0000
  O2          0.24432      0.90221      0.27813  1.0000
  O2          0.59239      0.55449      0.99037  1.0000
  O3          0.44556      0.04722      0.33081  1.0000
  O3          0.96147      0.40895      0.66001  1.0000
  O3          0.43091      0.43637      0.50433  1.0000
  O3          0.56074      0.00114      0.83883  1.0000
  O3          0.00457      0.57457      0.17039  1.0000
  O3          0.58413      0.57998      0.35480  1.0000
  O3          0.00353      0.41911      0.02374  1.0000
  O2          0.41112      0.99724      0.69368  1.0000
  O3          0.40863      0.44656      0.84524  1.0000
  O3          0.03078      0.58979      0.51217  1.0000
  O1          0.56480      0.98700      0.17451  1.0000
  O1          0.60740      0.16883      0.24478  1.0000
  O1          0.84972      0.45685      0.58055  1.0000
  O3          0.53240      0.40012      0.91659  1.0000
  O3          0.40005      0.85934      0.76294  1.0000
  O1          0.15204      0.53944      0.10073  1.0000
  O1          0.46263      0.60736      0.43224  1.0000
  F           0.48482      0.93354      0.26571  1.0000
  F           0.13796      0.58768      0.60292  1.0000
  F           0.40721      0.55487      0.93505  1.0000
  F           0.55010      0.15011      0.77131  1.0000
  F           0.85585      0.41124      0.10263  1.0000
  F           0.59131      0.44615      0.43689  1.0000
