data_cif

_audit_creation_method             'generated by GULP'

_symmetry_space_group_name_H-M     'P 1'
_symmetry_Int_Tables_number        1
_symmetry_cell_setting             triclinic

_cell_length_a                       12.1872
_cell_length_b                       12.1814
_cell_length_c                       29.9683
_cell_angle_alpha                   88.9368
_cell_angle_beta                    90.4433
_cell_angle_gamma                  120.1449

loop_
_atom_site_label
_atom_site_fract_x
_atom_site_fract_y
_atom_site_fract_z
_atom_site_occupancy
  Ge          0.69960      0.37570      0.03389  1.0000
  Ge          0.63607      0.33353      0.37087  1.0000
  Ge          0.65281      0.29529      0.70455  1.0000
  Ge          0.29251      0.63860      0.52927  1.0000
  Ge          0.36014      0.67780      0.86351  1.0000
  Ge          0.33472      0.71495      0.19843  1.0000
  Si          0.38814      0.69664      0.30129  1.0000
  Si          0.30625      0.62479      0.96721  1.0000
  Ge          0.29149      0.68818      0.63397  1.0000
  Si          0.60730      0.32562      0.80132  1.0000
  Si          0.68599      0.39573      0.47347  1.0000
  Ge          0.70794      0.31686      0.13855  1.0000
  Ge          0.52273      0.41940      0.96762  1.0000
  Ge          0.59571      0.11705      0.30748  1.0000
  Ge          0.87480      0.46682      0.63954  1.0000
  Ge          0.46706      0.59622      0.46404  1.0000
  Ge          0.40799      0.90434      0.79942  1.0000
  Ge          0.12239      0.53708      0.13091  1.0000
  Ge          0.43780      0.52305      0.36588  1.0000
  Ge          0.08794      0.57308      0.03203  1.0000
  Si          0.46923      0.90504      0.69605  1.0000
  Ge          0.55237      0.48608      0.86789  1.0000
  Ge          0.90792      0.44592      0.53900  1.0000
  Ge          0.52969      0.10157      0.20817  1.0000
  Si          0.27729      0.39658      0.84386  1.0000
  Si          0.61835      0.91869      0.18198  1.0000
  Si          0.09041      0.72013      0.51437  1.0000
  Si          0.71552      0.61273      0.34715  1.0000
  Ge          0.38298      0.10951      0.67885  1.0000
  Si          0.89974      0.29805      0.01208  1.0000
  Ge          0.39499      0.30503      0.47985  1.0000
  Si          0.90846      0.60853      0.14540  1.0000
  Ge          0.69807      0.12519      0.81176  1.0000
  Si          0.58909      0.70514      0.97831  1.0000
  Si          0.09743      0.40107      0.64576  1.0000
  Ge          0.30192      0.89661      0.31610  1.0000
  Ge          0.23778      0.34101      0.94788  1.0000
  Si          0.67027      0.91540      0.28431  1.0000
  Si          0.07306      0.75258      0.61689  1.0000
  Si          0.74835      0.67353      0.44900  1.0000
  Si          0.32714      0.10610      0.78197  1.0000
  Si          0.92543      0.25495      0.11435  1.0000
  Si          0.34117      0.24383      0.37719  1.0000
  Si          0.90532      0.66712      0.04387  1.0000
  Si          0.75107      0.10994      0.70897  1.0000
  Si          0.65044      0.76604      0.87663  1.0000
  Si          0.08783      0.34731      0.54340  1.0000
  Si          0.24982      0.91972      0.21330  1.0000
  Si          0.95877      0.11680      0.96334  1.0000
  Si          0.88922      0.85485      0.29544  1.0000
  Si          0.12907      0.02829      0.62812  1.0000
  Si          0.02374      0.89595      0.46231  1.0000
  Si          0.10365      0.15407      0.79555  1.0000
  Si          0.85636      0.97468      0.12873  1.0000
  Si          0.12040      0.96652      0.36204  1.0000
  Si          0.83381      0.87778      0.02875  1.0000
  Si          0.01883      0.14895      0.69451  1.0000
  Si          0.87259      0.04623      0.86245  1.0000
  Si          0.14071      0.12428      0.52862  1.0000
  Si          0.97250      0.85287      0.19476  1.0000
  O2          0.91385      0.99264      0.99441  1.0000
  O2          0.01238      0.94141      0.32525  1.0000
  O2          0.05137      0.06541      0.66221  1.0000
  O2          0.05738      0.01721      0.49226  1.0000
  O2          0.98527      0.07136      0.82832  1.0000
  O2          0.93711      0.93146      0.15945  1.0000
  O3          0.35716      0.57428      0.32814  1.0000
  O3          0.42056      0.77776      0.66782  1.0000
  O3          0.22415      0.66054      0.99640  1.0000
  O3          0.63619      0.43510      0.83382  1.0000
  O1          0.58908      0.24087      0.17416  1.0000
  O3          0.76763      0.36523      0.50538  1.0000
  O1          0.56487      0.33814      0.00441  1.0000
  O1          0.76116      0.43664      0.67632  1.0000
  O1          0.67859      0.23692      0.34446  1.0000
  O1          0.42437      0.68151      0.49756  1.0000
  O1          0.24600      0.58272      0.16739  1.0000
  O1          0.32040      0.77115      0.83131  1.0000
  O3          0.10628      0.20714      0.97068  1.0000
  O2          0.79003      0.90399      0.30239  1.0000
  O2          0.07600      0.87865      0.63576  1.0000
  O2          0.87431      0.79628      0.46811  1.0000
  O2          0.20447      0.10632      0.80304  1.0000
  O2          0.92504      0.12690      0.13130  1.0000
  O2          0.22746      0.11403      0.35612  1.0000
  O2          0.89203      0.78594      0.02566  1.0000
  O2          0.86870      0.09581      0.69018  1.0000
  O2          0.76885      0.89759      0.85833  1.0000
  O2          0.09637      0.22839      0.52438  1.0000
  O2          0.12367      0.91597      0.19317  1.0000
  O2          0.92691      0.86430      0.24377  1.0000
  O2          0.10583      0.05910      0.57767  1.0000
  O2          0.92875      0.07528      0.91217  1.0000
  O2          0.05473      0.13314      0.74493  1.0000
  O2          0.85057      0.93036      0.07841  1.0000
  O2          0.05749      0.93944      0.41101  1.0000
  O2          0.88588      0.19173      0.97680  1.0000
  O2          0.82385      0.70857      0.31173  1.0000
  O3          0.27697      0.10335      0.63849  1.0000
  O2          0.10253      0.82961      0.47924  1.0000
  O2          0.17272      0.30286      0.80728  1.0000
  O2          0.71265      0.91070      0.14596  1.0000
  O3          0.18625      0.88407      0.35406  1.0000
  O2          0.68500      0.80343      0.01565  1.0000
  O2          0.09762      0.29790      0.68116  1.0000
  O3          0.80812      0.12860      0.85074  1.0000
  O3          0.28870      0.19257      0.51898  1.0000
  O2          0.90676      0.70518      0.18217  1.0000
  O3          0.34769      0.66031      0.24988  1.0000
  O1          0.34617      0.70378      0.58061  1.0000
  O3          0.29561      0.65971      0.91536  1.0000
  O3          0.64953      0.37922      0.75158  1.0000
  O1          0.65245      0.30355      0.08453  1.0000
  O3          0.69757      0.35534      0.42326  1.0000
  O1          0.35995      0.31987      0.96385  1.0000
  O3          0.69020      0.04649      0.30199  1.0000
  O3          0.94229      0.63421      0.63002  1.0000
  O3          0.63292      0.69353      0.46100  1.0000
  O3          0.31196      0.97106      0.79479  1.0000
  O3          0.06076      0.37252      0.12651  1.0000
  O3          0.33308      0.35934      0.35476  1.0000
  O3          0.02657      0.67641      0.02036  1.0000
  O2          0.62269      0.98430      0.69137  1.0000
  O3          0.65720      0.65086      0.85589  1.0000
  O3          0.96346      0.34042      0.52373  1.0000
  O3          0.36749      0.04883      0.19538  1.0000
  O3          0.77662      0.31146      0.00486  1.0000
  O3          0.70693      0.47796      0.34199  1.0000
  O1          0.52118      0.24466      0.66848  1.0000
  O3          0.21327      0.70795      0.50403  1.0000
  O3          0.29102      0.53428      0.83624  1.0000
  O3          0.48251      0.79617      0.17294  1.0000
  O3          0.30368      0.75664      0.31889  1.0000
  O2          0.45757      0.70708      0.98033  1.0000
  O3          0.23226      0.52980      0.64916  1.0000
  O3          0.69607      0.26359      0.81616  1.0000
  O3          0.53642      0.30852      0.48673  1.0000
  O3          0.77718      0.47993      0.14943  1.0000
  O3          0.77642      0.54059      0.03064  1.0000
  O3          0.47235      0.24876      0.36458  1.0000
  O3          0.76063      0.23651      0.69018  1.0000
  O3          0.21450      0.47414      0.52688  1.0000
  O3          0.52413      0.76619      0.86023  1.0000
  O3          0.25302      0.79725      0.19499  1.0000
  O2          0.53823      0.80445      0.30488  1.0000
  O3          0.26074      0.47615      0.97312  1.0000
  O3          0.18605      0.74115      0.64099  1.0000
  O2          0.45658      0.21369      0.80435  1.0000
  O2          0.72252      0.54431      0.47392  1.0000
  O3          0.82256      0.27195      0.14131  1.0000
  O3          0.20862      0.33422      0.89132  1.0000
  O2          0.67479      0.91031      0.23061  1.0000
  O2          0.10066      0.77951      0.56369  1.0000
  O2          0.77138      0.67253      0.39602  1.0000
  O3          0.31709      0.11896      0.72904  1.0000
  O2          0.89766      0.23683      0.06131  1.0000
  O3          0.31911      0.23400      0.43054  1.0000
  O2          0.92376      0.68112      0.09780  1.0000
  O3          0.76201      0.10836      0.76273  1.0000
  O2          0.65958      0.76393      0.93097  1.0000
  O2          0.08216      0.33508      0.59786  1.0000
  O3          0.23599      0.91397      0.26689  1.0000
  O3          0.56743      0.56813      0.99022  1.0000
  O1          0.44700      0.01802      0.33050  1.0000
  O3          0.99159      0.43364      0.65926  1.0000
  O1          0.41245      0.44961      0.49026  1.0000
  O1          0.55084      0.00008      0.82422  1.0000
  O3          0.02268      0.58286      0.15594  1.0000
  O3          0.58446      0.60508      0.33588  1.0000
  O3          0.02706      0.42833      0.00155  1.0000
  O3          0.39953      0.97617      0.67445  1.0000
  O3          0.40832      0.40145      0.83599  1.0000
  O3          0.96201      0.59092      0.50671  1.0000
  O3          0.61458      0.04624      0.17494  1.0000
  O1          0.59277      0.18537      0.25759  1.0000
  O1          0.81979      0.40472      0.58811  1.0000
  O1          0.58791      0.42877      0.91676  1.0000
  O3          0.42905      0.86097      0.74688  1.0000
  O1          0.18149      0.60466      0.08011  1.0000
  O1          0.40539      0.58846      0.41223  1.0000
  F           0.47078      0.94886      0.24354  1.0000
  F           0.06069      0.53954      0.57257  1.0000
  F           0.45333      0.53326      0.90474  1.0000
  F           0.56159      0.14206      0.73787  1.0000
  F           0.94213      0.47690      0.07103  1.0000
  F           0.52467      0.46838      0.40736  1.0000
