data_cif

_audit_creation_method             'generated by GULP'

_symmetry_space_group_name_H-M     'P 1'
_symmetry_Int_Tables_number        1
_symmetry_cell_setting             triclinic

_cell_length_a                       12.1344
_cell_length_b                       12.1398
_cell_length_c                       29.9377
_cell_angle_alpha                   89.9102
_cell_angle_beta                    90.0317
_cell_angle_gamma                  119.9357

loop_
_atom_site_label
_atom_site_fract_x
_atom_site_fract_y
_atom_site_fract_z
_atom_site_occupancy
  Ge          0.69960      0.37570      0.03389  1.0000
  Ge          0.64163      0.32042      0.36988  1.0000
  Ge          0.68986      0.31377      0.70209  1.0000
  Ge          0.32235      0.62893      0.52065  1.0000
  Si          0.37785      0.68829      0.85202  1.0000
  Ge          0.33000      0.69378      0.18615  1.0000
  Ge          0.38337      0.69208      0.28453  1.0000
  Ge          0.32701      0.62686      0.94974  1.0000
  Ge          0.32012      0.68632      0.61886  1.0000
  Ge          0.63820      0.31735      0.80059  1.0000
  Ge          0.69629      0.37442      0.46834  1.0000
  Ge          0.70114      0.32313      0.13237  1.0000
  Ge          0.52283      0.43281      0.97378  1.0000
  Ge          0.58289      0.08720      0.31006  1.0000
  Ge          0.92281      0.48689      0.64137  1.0000
  Ge          0.48302      0.57499      0.44951  1.0000
  Ge          0.43812      0.90302      0.78472  1.0000
  Ge          0.11567      0.53439      0.11478  1.0000
  Ge          0.44318      0.51662      0.34380  1.0000
  Ge          0.09377      0.57355      0.00869  1.0000
  Ge          0.49476      0.91956      0.67886  1.0000
  Si          0.58922      0.47606      0.86992  1.0000
  Si          0.90384      0.42240      0.53763  1.0000
  Ge          0.54247      0.10846      0.20401  1.0000
  Ge          0.30291      0.40029      0.84881  1.0000
  Si          0.62018      0.89843      0.18270  1.0000
  Ge          0.11134      0.71099      0.51644  1.0000
  Si          0.73344      0.58708      0.34006  1.0000
  Si          0.42259      0.13744      0.67350  1.0000
  Si          0.87460      0.28293      0.00553  1.0000
  Si          0.40440      0.28765      0.47105  1.0000
  Si          0.90649      0.61263      0.13645  1.0000
  Si          0.72568      0.11357      0.80448  1.0000
  Si          0.59257      0.72100      0.98149  1.0000
  Si          0.14294      0.41746      0.64739  1.0000
  Si          0.29171      0.86759      0.31385  1.0000
  Si          0.23466      0.34444      0.95084  1.0000
  Si          0.66607      0.88417      0.28489  1.0000
  Si          0.12559      0.77535      0.61894  1.0000
  Si          0.76989      0.65552      0.44245  1.0000
  Si          0.35718      0.10922      0.77595  1.0000
  Si          0.90822      0.24705      0.10790  1.0000
  Si          0.35943      0.22998      0.36898  1.0000
  Si          0.89224      0.65801      0.03423  1.0000
  Si          0.78162      0.12309      0.70254  1.0000
  Ge          0.65972      0.75982      0.87785  1.0000
  Si          0.11270      0.34824      0.54537  1.0000
  Si          0.25498      0.90106      0.21135  1.0000
  Si          0.96203      0.11692      0.95992  1.0000
  Si          0.89512      0.84023      0.29304  1.0000
  Si          0.16976      0.04718      0.62657  1.0000
  Si          0.03855      0.88578      0.45975  1.0000
  Si          0.13074      0.15390      0.79287  1.0000
  Si          0.86640      0.97752      0.12774  1.0000
  Si          0.12841      0.95946      0.35895  1.0000
  Si          0.84537      0.88474      0.02701  1.0000
  Si          0.05224      0.16321      0.69245  1.0000
  Si          0.89275      0.03194      0.85795  1.0000
  Si          0.15499      0.12127      0.52524  1.0000
  Si          0.98478      0.85812      0.19181  1.0000
  O2          0.92594      0.00124      0.99370  1.0000
  O2          0.01461      0.92678      0.32452  1.0000
  O2          0.08498      0.08288      0.65791  1.0000
  O2          0.06716      0.00379      0.49256  1.0000
  O2          0.01619      0.07048      0.82736  1.0000
  O2          0.95688      0.94944      0.15996  1.0000
  O1          0.35198      0.54841      0.31059  1.0000
  O1          0.46237      0.79635      0.64587  1.0000
  O1          0.21569      0.66115      0.97455  1.0000
  O3          0.66797      0.42235      0.84406  1.0000
  O1          0.59512      0.24619      0.17465  1.0000
  O3          0.77351      0.34239      0.51090  1.0000
  O1          0.55802      0.34179      0.00554  1.0000
  O1          0.79778      0.45423      0.67337  1.0000
  O1          0.67354      0.20904      0.34360  1.0000
  O1          0.43194      0.65931      0.47957  1.0000
  O1          0.25423      0.58846      0.14366  1.0000
  O3          0.34893      0.76472      0.81451  1.0000
  O2          0.11026      0.21455      0.96829  1.0000
  O2          0.79516      0.88749      0.30189  1.0000
  O2          0.12160      0.90046      0.63680  1.0000
  O2          0.88730      0.78775      0.46111  1.0000
  O2          0.22639      0.09779      0.79481  1.0000
  O2          0.92205      0.12858      0.12666  1.0000
  O2          0.22980      0.10676      0.35114  1.0000
  O2          0.89517      0.78701      0.01755  1.0000
  O2          0.90470      0.11628      0.68470  1.0000
  O3          0.79961      0.88254      0.85508  1.0000
  O2          0.09648      0.21507      0.52658  1.0000
  O2          0.13596      0.91460      0.19302  1.0000
  O2          0.93612      0.85909      0.24142  1.0000
  O2          0.15093      0.06915      0.57482  1.0000
  O2          0.93540      0.06762      0.90923  1.0000
  O2          0.07536      0.13579      0.74302  1.0000
  O2          0.87042      0.93051      0.07812  1.0000
  O2          0.07789      0.93746      0.40949  1.0000
  O2          0.87735      0.18259      0.97016  1.0000
  O2          0.83468      0.69136      0.30501  1.0000
  O2          0.31898      0.13460      0.63824  1.0000
  O3          0.10915      0.81260      0.47529  1.0000
  O3          0.20552      0.29962      0.80651  1.0000
  O2          0.72269      0.90697      0.14581  1.0000
  O2          0.19138      0.87176      0.34915  1.0000
  O2          0.69432      0.81951      0.01790  1.0000
  O2          0.13923      0.31400      0.68299  1.0000
  O2          0.81887      0.10443      0.84160  1.0000
  O2          0.29966      0.19526      0.50780  1.0000
  O2          0.91480      0.71506      0.17323  1.0000
  O1          0.31656      0.61236      0.23358  1.0000
  O1          0.40127      0.69823      0.56851  1.0000
  O3          0.31043      0.68889      0.89738  1.0000
  O1          0.70898      0.39646      0.75310  1.0000
  O1          0.61969      0.31139      0.08498  1.0000
  O1          0.70587      0.30394      0.42118  1.0000
  O3          0.35696      0.33814      0.96619  1.0000
  O3          0.67214      0.00977      0.30303  1.0000
  O3          0.99916      0.65342      0.63556  1.0000
  O3          0.64491      0.65195      0.46026  1.0000
  O3          0.36266      0.98967      0.79524  1.0000
  O3          0.03295      0.37155      0.12431  1.0000
  O3          0.35258      0.35077      0.35252  1.0000
  O3          0.01785      0.66414      0.01578  1.0000
  O3          0.66064      0.99451      0.68711  1.0000
  O3          0.65651      0.62519      0.85820  1.0000
  O2          0.98796      0.35347      0.52964  1.0000
  O3          0.37925      0.02631      0.19513  1.0000
  O3          0.73883      0.27282      0.00347  1.0000
  O3          0.74438      0.46174      0.33863  1.0000
  O3          0.54706      0.27412      0.67182  1.0000
  O1          0.23822      0.69801      0.49966  1.0000
  O3          0.32386      0.54577      0.83256  1.0000
  O3          0.48818      0.77955      0.16776  1.0000
  O3          0.28236      0.73205      0.31615  1.0000
  O3          0.46645      0.73109      0.98116  1.0000
  O3          0.27763      0.54414      0.64957  1.0000
  O3          0.70666      0.22870      0.82000  1.0000
  O3          0.53823      0.30544      0.48710  1.0000
  O3          0.78749      0.48044      0.15133  1.0000
  O3          0.76460      0.53912      0.01612  1.0000
  O3          0.47892      0.22342      0.35020  1.0000
  O3          0.78753      0.24816      0.68304  1.0000
  O3          0.23543      0.46178      0.52312  1.0000
  O3          0.53292      0.76714      0.85605  1.0000
  O3          0.24950      0.77999      0.18849  1.0000
  O3          0.54686      0.75653      0.30287  1.0000
  O3          0.23004      0.46502      0.96982  1.0000
  O3          0.25309      0.78286      0.63713  1.0000
  O3          0.47257      0.23612      0.79572  1.0000
  O3          0.77939      0.54033      0.46404  1.0000
  O3          0.78600      0.24118      0.13005  1.0000
  O3          0.21581      0.33800      0.89664  1.0000
  O2          0.67247      0.88074      0.23020  1.0000
  O3          0.13003      0.79367      0.56490  1.0000
  O2          0.77639      0.65929      0.38835  1.0000
  O2          0.35021      0.10656      0.72185  1.0000
  O2          0.90246      0.23839      0.05386  1.0000
  O2          0.35573      0.21509      0.42371  1.0000
  O2          0.88897      0.66458      0.08887  1.0000
  O2          0.79813      0.13614      0.75715  1.0000
  O3          0.67213      0.77184      0.93497  1.0000
  O2          0.11972      0.34586      0.59921  1.0000
  O2          0.24625      0.89352      0.26539  1.0000
  O3          0.55595      0.57891      0.99564  1.0000
  O3          0.43200      0.97508      0.32853  1.0000
  O3          0.03463      0.44965      0.66140  1.0000
  O3          0.40918      0.42141      0.47049  1.0000
  O3          0.59266      0.98318      0.80443  1.0000
  O3          0.03332      0.60336      0.13760  1.0000
  O3          0.59282      0.55239      0.32467  1.0000
  O3          0.98130      0.42314      0.99033  1.0000
  O3          0.45882      0.03229      0.65860  1.0000
  O3          0.44550      0.40307      0.85074  1.0000
  O3          0.97606      0.56353      0.51656  1.0000
  O3          0.61068      0.02512      0.18146  1.0000
  O1          0.57639      0.14698      0.25821  1.0000
  O3          0.87014      0.41995      0.58881  1.0000
  O3          0.59642      0.45569      0.92196  1.0000
  O1          0.42554      0.86199      0.73053  1.0000
  O1          0.15381      0.56738      0.06047  1.0000
  O1          0.45402      0.58613      0.39520  1.0000
  F           0.44172      0.84611      0.25196  1.0000
  F           0.16705      0.59456      0.58418  1.0000
  F           0.42355      0.56840      0.91844  1.0000
  F           0.59647      0.16164      0.73538  1.0000
  F           0.85404      0.43366      0.06698  1.0000
  F           0.58322      0.41549      0.40213  1.0000
