data_cif

_audit_creation_method             'generated by GULP'

_symmetry_space_group_name_H-M     'P 1'
_symmetry_Int_Tables_number        1
_symmetry_cell_setting             triclinic

_cell_length_a                       12.1792
_cell_length_b                       12.1800
_cell_length_c                       29.8394
_cell_angle_alpha                   89.9472
_cell_angle_beta                    90.0553
_cell_angle_gamma                  119.8803

loop_
_atom_site_label
_atom_site_fract_x
_atom_site_fract_y
_atom_site_fract_z
_atom_site_occupancy
  Ge          0.69960      0.37570      0.03389  1.0000
  Si          0.67002      0.33502      0.36796  1.0000
  Ge          0.70262      0.34332      0.70206  1.0000
  Ge          0.34825      0.66529      0.53571  1.0000
  Si          0.37568      0.70040      0.86594  1.0000
  Ge          0.34837      0.69586      0.20181  1.0000
  Ge          0.41970      0.72904      0.30033  1.0000
  Ge          0.34186      0.62627      0.96341  1.0000
  Ge          0.31290      0.70144      0.63420  1.0000
  Ge          0.62512      0.30705      0.80011  1.0000
  Ge          0.70356      0.41165      0.46518  1.0000
  Ge          0.73651      0.34042      0.13229  1.0000
  Ge          0.52359      0.42550      0.96834  1.0000
  Ge          0.61918      0.11569      0.30386  1.0000
  Ge          0.92601      0.51641      0.63523  1.0000
  Ge          0.52099      0.61244      0.46941  1.0000
  Ge          0.42932      0.92071      0.80201  1.0000
  Ge          0.12494      0.52322      0.13454  1.0000
  Si          0.46271      0.55637      0.36530  1.0000
  Ge          0.11798      0.57027      0.02802  1.0000
  Si          0.48511      0.92065      0.69790  1.0000
  Si          0.58223      0.48045      0.86441  1.0000
  Ge          0.92990      0.46938      0.52886  1.0000
  Ge          0.56994      0.11589      0.19739  1.0000
  Ge          0.29875      0.41649      0.85481  1.0000
  Si          0.63382      0.89333      0.18921  1.0000
  Si          0.15282      0.75578      0.52231  1.0000
  Ge          0.74676      0.61908      0.35580  1.0000
  Ge          0.41406      0.13679      0.68873  1.0000
  Si          0.89401      0.28344      0.02199  1.0000
  Si          0.43384      0.32299      0.48949  1.0000
  Si          0.92197      0.61058      0.15311  1.0000
  Si          0.71595      0.12412      0.82102  1.0000
  Si          0.61130      0.71459      0.98846  1.0000
  Si          0.12822      0.42859      0.65379  1.0000
  Si          0.32984      0.91136      0.32094  1.0000
  Si          0.23851      0.34155      0.95758  1.0000
  Si          0.70063      0.91272      0.29158  1.0000
  Si          0.12962      0.79992      0.62466  1.0000
  Si          0.80667      0.69600      0.45841  1.0000
  Si          0.34315      0.12094      0.79148  1.0000
  Si          0.91817      0.23868      0.12448  1.0000
  Ge          0.38777      0.27489      0.38525  1.0000
  Si          0.92006      0.65803      0.05012  1.0000
  Si          0.76423      0.12246      0.71841  1.0000
  Ge          0.65778      0.76167      0.88434  1.0000
  Si          0.12889      0.38223      0.55097  1.0000
  Si          0.28398      0.91521      0.21810  1.0000
  Si          0.96875      0.11234      0.97072  1.0000
  Si          0.92613      0.86497      0.30287  1.0000
  Si          0.16679      0.06912      0.63634  1.0000
  Si          0.07674      0.92553      0.47046  1.0000
  Si          0.11950      0.16977      0.80302  1.0000
  Si          0.87971      0.96938      0.13747  1.0000
  Si          0.16228      0.99834      0.36848  1.0000
  Si          0.86470      0.87790      0.03651  1.0000
  Si          0.03618      0.17240      0.70208  1.0000
  Si          0.88349      0.03810      0.86879  1.0000
  Si          0.17891      0.15950      0.53597  1.0000
  Si          0.01094      0.86414      0.20207  1.0000
  O2          0.93974      0.99263      0.00169  1.0000
  O2          0.04322      0.95109      0.33536  1.0000
  O2          0.07427      0.09576      0.66752  1.0000
  O2          0.10586      0.04774      0.49992  1.0000
  O2          0.00234      0.08594      0.83574  1.0000
  O2          0.97313      0.94245      0.16781  1.0000
  O3          0.38333      0.59760      0.33596  1.0000
  O3          0.44622      0.79960      0.66930  1.0000
  O1          0.24028      0.66045      0.99474  1.0000
  O3          0.66173      0.43848      0.83567  1.0000
  O1          0.60414      0.24141      0.16577  1.0000
  O1          0.80617      0.37815      0.49632  1.0000
  O1          0.57935      0.34171      0.99711  1.0000
  O1          0.79209      0.46586      0.66682  1.0000
  O3          0.70375      0.25140      0.33581  1.0000
  O1          0.46832      0.69759      0.49897  1.0000
  O1          0.26123      0.57561      0.16528  1.0000
  O3          0.34298      0.78212      0.83219  1.0000
  O2          0.11798      0.21000      0.97495  1.0000
  O2          0.83072      0.91974      0.30813  1.0000
  O2          0.11927      0.92056      0.64185  1.0000
  O2          0.92778      0.82764      0.47542  1.0000
  O2          0.21467      0.11519      0.80987  1.0000
  O2          0.93107      0.11856      0.14099  1.0000
  O3          0.25303      0.14649      0.36219  1.0000
  O2          0.92163      0.78463      0.03119  1.0000
  O2          0.88511      0.11501      0.69866  1.0000
  O3          0.79285      0.89035      0.86168  1.0000
  O2          0.12529      0.25572      0.53098  1.0000
  O2          0.16104      0.91952      0.19824  1.0000
  O2          0.97517      0.88220      0.25201  1.0000
  O2          0.15011      0.09955      0.58518  1.0000
  O2          0.93122      0.06607      0.91993  1.0000
  O2          0.07134      0.15206      0.75198  1.0000
  O2          0.88666      0.93225      0.08649  1.0000
  O2          0.11316      0.96840      0.41938  1.0000
  O2          0.89100      0.18080      0.98624  1.0000
  O3          0.85439      0.71863      0.31535  1.0000
  O3          0.31193      0.14685      0.64963  1.0000
  O2          0.15582      0.85892      0.48675  1.0000
  O3          0.19114      0.31681      0.81458  1.0000
  O2          0.73438      0.89123      0.15363  1.0000
  O2          0.23861      0.92480      0.35754  1.0000
  O2          0.71497      0.80345      0.02599  1.0000
  O2          0.11145      0.32111      0.69002  1.0000
  O2          0.80731      0.11218      0.85798  1.0000
  O2          0.32960      0.23358      0.52682  1.0000
  O2          0.93574      0.71615      0.18936  1.0000
  O1          0.33570      0.63505      0.25415  1.0000
  O1          0.40784      0.71086      0.58834  1.0000
  O3          0.34062      0.71561      0.91624  1.0000
  O1          0.71232      0.40157      0.75480  1.0000
  O1          0.64096      0.33202      0.08642  1.0000
  O3          0.70531      0.32187      0.41841  1.0000
  O3          0.36191      0.34515      0.97886  1.0000
  O3          0.70068      0.03423      0.31246  1.0000
  O3          0.00762      0.67847      0.64469  1.0000
  O3          0.68332      0.69353      0.47899  1.0000
  O3          0.34697      0.00039      0.81183  1.0000
  O3          0.04171      0.36076      0.14378  1.0000
  O3          0.37386      0.40454      0.37314  1.0000
  O3          0.04914      0.66631      0.03653  1.0000
  O2          0.63908      0.99125      0.70584  1.0000
  O3          0.67194      0.63195      0.87272  1.0000
  O3          0.99984      0.37450      0.53772  1.0000
  O3          0.40481      0.04465      0.20517  1.0000
  O3          0.76014      0.27653      0.01834  1.0000
  O3          0.75600      0.48230      0.35268  1.0000
  O1          0.54795      0.28038      0.68340  1.0000
  O3          0.28717      0.76324      0.51925  1.0000
  O3          0.28854      0.55281      0.85167  1.0000
  O3          0.50752      0.75920      0.18530  1.0000
  O3          0.33595      0.78751      0.33293  1.0000
  O3          0.47851      0.70464      0.99897  1.0000
  O3          0.25202      0.55831      0.66658  1.0000
  O3          0.70693      0.24652      0.83245  1.0000
  O3          0.56651      0.33285      0.50041  1.0000
  O3          0.79805      0.48148      0.16572  1.0000
  O3          0.80308      0.53771      0.02719  1.0000
  O3          0.51898      0.28256      0.36068  1.0000
  O3          0.76410      0.24082      0.69604  1.0000
  O3          0.24664      0.50309      0.52865  1.0000
  O3          0.52685      0.75314      0.85917  1.0000
  O3          0.28705      0.79756      0.19547  1.0000
  O3          0.58567      0.78543      0.31041  1.0000
  O3          0.22823      0.45992      0.97478  1.0000
  O3          0.25620      0.81102      0.64410  1.0000
  O3          0.45917      0.24967      0.80953  1.0000
  O3          0.81660      0.57805      0.47651  1.0000
  O3          0.79261      0.22904      0.14425  1.0000
  O3          0.23625      0.33079      0.90339  1.0000
  O2          0.70625      0.91945      0.23692  1.0000
  O2          0.12572      0.80148      0.56996  1.0000
  O3          0.81024      0.70534      0.40415  1.0000
  O3          0.32867      0.11196      0.73752  1.0000
  O2          0.91952      0.23641      0.06972  1.0000
  O3          0.37804      0.24966      0.44238  1.0000
  O2          0.90637      0.66156      0.10423  1.0000
  O2          0.78263      0.13672      0.77237  1.0000
  O3          0.66730      0.78800      0.94139  1.0000
  O2          0.14392      0.37699      0.60508  1.0000
  O2          0.26389      0.89949      0.27213  1.0000
  O3          0.60145      0.57735      0.99036  1.0000
  O3          0.46654      0.03792      0.32493  1.0000
  O3          0.00216      0.43967      0.65683  1.0000
  O3          0.44435      0.46048      0.49141  1.0000
  O3          0.57998      0.99713      0.82466  1.0000
  O3          0.04790      0.59893      0.15616  1.0000
  O3          0.59434      0.57907      0.34316  1.0000
  O3          0.99989      0.42407      0.00861  1.0000
  O3          0.45542      0.02472      0.67592  1.0000
  O3          0.45154      0.45870      0.84171  1.0000
  O3          0.04753      0.61508      0.50874  1.0000
  O3          0.59882      0.99950      0.17625  1.0000
  O1          0.63594      0.16435      0.24990  1.0000
  O1          0.87898      0.48600      0.58097  1.0000
  O3          0.54858      0.41111      0.91280  1.0000
  O3          0.41843      0.88013      0.74681  1.0000
  O1          0.16992      0.55388      0.08006  1.0000
  O3          0.49324      0.62470      0.41388  1.0000
  F           0.47457      0.87379      0.26267  1.0000
  F           0.16935      0.61343      0.59579  1.0000
  F           0.42951      0.56688      0.92812  1.0000
  F           0.56845      0.16299      0.76088  1.0000
  F           0.87886      0.42472      0.09478  1.0000
  F           0.61623      0.47056      0.42934  1.0000
