data_cif

_audit_creation_method             'generated by GULP'

_symmetry_space_group_name_H-M     'P 1'
_symmetry_Int_Tables_number        1
_symmetry_cell_setting             triclinic

_cell_length_a                       12.1866
_cell_length_b                       12.1818
_cell_length_c                       29.8799
_cell_angle_alpha                   90.6729
_cell_angle_beta                    89.5767
_cell_angle_gamma                  120.1893

loop_
_atom_site_label
_atom_site_fract_x
_atom_site_fract_y
_atom_site_fract_z
_atom_site_occupancy
  Ge          0.69960      0.37570      0.03389  1.0000
  Ge          0.67270      0.34370      0.36864  1.0000
  Ge          0.72833      0.35060      0.70297  1.0000
  Si          0.36994      0.65241      0.53008  1.0000
  Ge          0.39091      0.69392      0.86531  1.0000
  Ge          0.35591      0.70309      0.19639  1.0000
  Ge          0.42058      0.72839      0.29523  1.0000
  Ge          0.34364      0.62721      0.96399  1.0000
  Ge          0.33964      0.70181      0.62751  1.0000
  Ge          0.65000      0.30431      0.80083  1.0000
  Ge          0.72339      0.40440      0.47337  1.0000
  Ge          0.74514      0.34263      0.13153  1.0000
  Si          0.52632      0.41705      0.97018  1.0000
  Ge          0.62790      0.11660      0.30379  1.0000
  Si          0.95030      0.52386      0.64053  1.0000
  Ge          0.53377      0.59626      0.46222  1.0000
  Ge          0.44601      0.91591      0.79741  1.0000
  Ge          0.13222      0.53022      0.12954  1.0000
  Ge          0.47535      0.56444      0.36104  1.0000
  Si          0.12103      0.57849      0.02598  1.0000
  Ge          0.50314      0.92970      0.69112  1.0000
  Ge          0.58498      0.46751      0.86610  1.0000
  Ge          0.94868      0.45664      0.53687  1.0000
  Ge          0.58131      0.12123      0.19776  1.0000
  Si          0.30074      0.40620      0.85405  1.0000
  Si          0.64415      0.89740      0.18813  1.0000
  Ge          0.17037      0.74500      0.52155  1.0000
  Si          0.76347      0.62907      0.35454  1.0000
  Si          0.44199      0.15550      0.68774  1.0000
  Ge          0.90417      0.29022      0.01964  1.0000
  Si          0.44003      0.32326      0.48657  1.0000
  Si          0.93157      0.61648      0.15179  1.0000
  Si          0.73597      0.11867      0.81881  1.0000
  Ge          0.61626      0.70967      0.98636  1.0000
  Ge          0.15218      0.43436      0.65564  1.0000
  Si          0.33588      0.91304      0.31934  1.0000
  Si          0.24833      0.34419      0.95604  1.0000
  Si          0.70577      0.91105      0.29078  1.0000
  Si          0.15718      0.80401      0.62497  1.0000
  Si          0.81253      0.69328      0.45682  1.0000
  Si          0.36774      0.12332      0.78998  1.0000
  Si          0.92832      0.24226      0.12267  1.0000
  Si          0.38901      0.27955      0.38346  1.0000
  Si          0.92323      0.65874      0.04943  1.0000
  Si          0.78791      0.12747      0.71611  1.0000
  Si          0.67355      0.75723      0.88339  1.0000
  Si          0.14850      0.37385      0.55205  1.0000
  Si          0.29369      0.92229      0.21672  1.0000
  Si          0.97869      0.11185      0.96871  1.0000
  Si          0.93644      0.87279      0.30353  1.0000
  Si          0.19293      0.07181      0.63783  1.0000
  Si          0.09130      0.91586      0.46992  1.0000
  Si          0.13373      0.15658      0.80316  1.0000
  Si          0.89251      0.97574      0.13725  1.0000
  Si          0.17104      0.00161      0.36903  1.0000
  Si          0.87452      0.88141      0.03631  1.0000
  Si          0.06157      0.17696      0.70336  1.0000
  Si          0.89754      0.02703      0.86764  1.0000
  Si          0.19581      0.14932      0.53608  1.0000
  Si          0.02019      0.86989      0.20221  1.0000
  O2          0.94890      0.99557      0.00136  1.0000
  O2          0.05405      0.96336      0.33543  1.0000
  O2          0.10144      0.10293      0.66755  1.0000
  O2          0.11301      0.03072      0.50321  1.0000
  O2          0.01607      0.06487      0.83462  1.0000
  O2          0.98261      0.94919      0.16914  1.0000
  O1          0.38629      0.59289      0.32604  1.0000
  O1          0.47909      0.81348      0.65573  1.0000
  O3          0.23758      0.66029      0.99544  1.0000
  O1          0.68002      0.43134      0.83741  1.0000
  O1          0.61577      0.24668      0.16661  1.0000
  O1          0.81245      0.36660      0.50742  1.0000
  O3          0.57152      0.33820      0.99974  1.0000
  O3          0.82269      0.47864      0.66890  1.0000
  O1          0.71006      0.25124      0.33650  1.0000
  O3          0.47723      0.67961      0.49599  1.0000
  O1          0.27398      0.58863      0.15683  1.0000
  O1          0.36062      0.77830      0.82710  1.0000
  O2          0.12845      0.21331      0.97394  1.0000
  O2          0.83805      0.92346      0.30742  1.0000
  O2          0.14438      0.92325      0.64381  1.0000
  O2          0.94328      0.81209      0.47514  1.0000
  O2          0.23320      0.10742      0.80627  1.0000
  O2          0.94339      0.12522      0.14116  1.0000
  O2          0.26452      0.15197      0.36438  1.0000
  O2          0.92958      0.78580      0.02986  1.0000
  O2          0.91321      0.12849      0.69584  1.0000
  O2          0.80173      0.87714      0.86218  1.0000
  O2          0.14688      0.24928      0.53081  1.0000
  O2          0.17067      0.92719      0.19793  1.0000
  O2          0.98372      0.88329      0.25276  1.0000
  O2          0.18073      0.10136      0.58655  1.0000
  O2          0.94897      0.06067      0.91798  1.0000
  O2          0.08436      0.14289      0.75279  1.0000
  O2          0.90338      0.93764      0.08656  1.0000
  O2          0.11991      0.96706      0.41935  1.0000
  O3          0.89955      0.17940      0.98071  1.0000
  O2          0.86735      0.72608      0.31843  1.0000
  O2          0.34020      0.15587      0.65248  1.0000
  O3          0.17467      0.85391      0.48237  1.0000
  O2          0.20082      0.30398      0.81800  1.0000
  O2          0.74563      0.89731      0.15232  1.0000
  O2          0.24294      0.92552      0.35572  1.0000
  O3          0.72612      0.80692      0.02707  1.0000
  O3          0.14080      0.32636      0.69566  1.0000
  O2          0.82662      0.10384      0.85492  1.0000
  O2          0.34309      0.21734      0.52191  1.0000
  O2          0.94508      0.72188      0.18840  1.0000
  O1          0.33571      0.63842      0.24781  1.0000
  O3          0.42396      0.69703      0.57981  1.0000
  O1          0.33922      0.71011      0.91673  1.0000
  O1          0.73729      0.40494      0.75599  1.0000
  O1          0.64627      0.33213      0.08699  1.0000
  O1          0.71318      0.33414      0.42264  1.0000
  O2          0.37333      0.34819      0.97656  1.0000
  O3          0.70700      0.03367      0.31198  1.0000
  O2          0.03197      0.67778      0.64424  1.0000
  O3          0.69677      0.70261      0.47680  1.0000
  O3          0.36598      0.99841      0.80732  1.0000
  O3          0.05147      0.36904      0.14080  1.0000
  O3          0.37752      0.39691      0.36906  1.0000
  O2          0.05339      0.66361      0.03593  1.0000
  O3          0.66752      0.99929      0.70172  1.0000
  O3          0.67940      0.63303      0.87269  1.0000
  O3          0.01414      0.35954      0.54020  1.0000
  O3          0.41613      0.05280      0.20562  1.0000
  O1          0.76011      0.28100      0.01522  1.0000
  O3          0.76925      0.50055      0.35243  1.0000
  O3          0.57023      0.29016      0.68508  1.0000
  O3          0.30775      0.74110      0.51624  1.0000
  O3          0.29528      0.53334      0.84906  1.0000
  O3          0.51692      0.76389      0.18239  1.0000
  O3          0.33936      0.78738      0.32975  1.0000
  O1          0.47902      0.70848      0.99854  1.0000
  O1          0.28928      0.57212      0.66445  1.0000
  O3          0.72964      0.24169      0.83292  1.0000
  O3          0.57501      0.33592      0.49796  1.0000
  O3          0.80955      0.48545      0.16437  1.0000
  O3          0.80363      0.53899      0.02764  1.0000
  O3          0.51312      0.28731      0.36077  1.0000
  O3          0.78641      0.24732      0.69508  1.0000
  O2          0.25703      0.50179      0.52903  1.0000
  O3          0.55387      0.75387      0.86000  1.0000
  O3          0.29829      0.80778      0.19161  1.0000
  O3          0.58777      0.78426      0.30846  1.0000
  O3          0.23606      0.45996      0.97407  1.0000
  O3          0.28396      0.81399      0.64259  1.0000
  O3          0.48199      0.24754      0.81177  1.0000
  O3          0.81344      0.56875      0.47437  1.0000
  O3          0.80192      0.23236      0.14249  1.0000
  O2          0.24797      0.33617      0.90168  1.0000
  O2          0.71332      0.91832      0.23614  1.0000
  O3          0.15454      0.81120      0.57102  1.0000
  O2          0.81572      0.70105      0.40224  1.0000
  O2          0.36882      0.12955      0.73535  1.0000
  O3          0.92802      0.23070      0.06859  1.0000
  O2          0.38938      0.25946      0.43712  1.0000
  O2          0.91221      0.66514      0.10341  1.0000
  O2          0.80548      0.13863      0.77026  1.0000
  O3          0.68294      0.78725      0.93648  1.0000
  O3          0.16069      0.36590      0.60506  1.0000
  O2          0.27216      0.90208      0.27043  1.0000
  O3          0.59870      0.55968      0.99043  1.0000
  O3          0.47389      0.03899      0.32428  1.0000
  O3          0.02189      0.45554      0.66156  1.0000
  O3          0.44246      0.45327      0.49407  1.0000
  O3          0.59785      0.99221      0.82006  1.0000
  O3          0.05849      0.60697      0.15338  1.0000
  O3          0.62458      0.59668      0.34084  1.0000
  O3          0.01443      0.44308      0.00546  1.0000
  O3          0.47711      0.05031      0.67340  1.0000
  O3          0.44197      0.43770      0.84293  1.0000
  O1          0.04421      0.59706      0.51045  1.0000
  O3          0.61006      0.00458      0.17644  1.0000
  O1          0.64700      0.16827      0.25032  1.0000
  O3          0.90711      0.48157      0.58973  1.0000
  O3          0.55980      0.40462      0.91951  1.0000
  O1          0.43278      0.87357      0.74261  1.0000
  O3          0.16628      0.55337      0.07377  1.0000
  O1          0.48492      0.63076      0.41253  1.0000
  F           0.48247      0.87558      0.26036  1.0000
  F           0.18700      0.61155      0.59597  1.0000
  F           0.44093      0.57554      0.92769  1.0000
  F           0.59493      0.16556      0.76128  1.0000
  F           0.88489      0.42335      0.09182  1.0000
  F           0.59216      0.49821      0.42881  1.0000
