data_cif

_audit_creation_method             'generated by GULP'

_symmetry_space_group_name_H-M     'P 1'
_symmetry_Int_Tables_number        1
_symmetry_cell_setting             triclinic

_cell_length_a                       12.1817
_cell_length_b                       12.1811
_cell_length_c                       29.9170
_cell_angle_alpha                   89.5898
_cell_angle_beta                    91.4783
_cell_angle_gamma                  119.9901

loop_
_atom_site_label
_atom_site_fract_x
_atom_site_fract_y
_atom_site_fract_z
_atom_site_occupancy
  Ge          0.69960      0.37570      0.03389  1.0000
  Ge          0.61509      0.29260      0.37238  1.0000
  Ge          0.66888      0.28377      0.70208  1.0000
  Si          0.32198      0.61907      0.54893  1.0000
  Si          0.36548      0.67082      0.87962  1.0000
  Si          0.29520      0.66900      0.21189  1.0000
  Ge          0.37402      0.69356      0.31465  1.0000
  Ge          0.32505      0.60073      0.98194  1.0000
  Ge          0.26558      0.64457      0.64472  1.0000
  Ge          0.62131      0.27849      0.80119  1.0000
  Ge          0.66688      0.36241      0.47192  1.0000
  Ge          0.68191      0.30889      0.13874  1.0000
  Ge          0.51624      0.41007      0.96497  1.0000
  Ge          0.56545      0.07746      0.30174  1.0000
  Ge          0.88577      0.45984      0.63654  1.0000
  Ge          0.48715      0.56534      0.48666  1.0000
  Ge          0.41003      0.89282      0.81808  1.0000
  Ge          0.06964      0.49596      0.14721  1.0000
  Ge          0.42334      0.51814      0.38111  1.0000
  Ge          0.11319      0.56481      0.04892  1.0000
  Ge          0.43949      0.86688      0.71212  1.0000
  Ge          0.56975      0.44550      0.86378  1.0000
  Si          0.89333      0.40862      0.53309  1.0000
  Ge          0.50798      0.08937      0.20192  1.0000
  Ge          0.28078      0.38819      0.86048  1.0000
  Ge          0.58031      0.86870      0.19459  1.0000
  Ge          0.11340      0.69149      0.53011  1.0000
  Si          0.70693      0.58488      0.36661  1.0000
  Si          0.37903      0.09250      0.69977  1.0000
  Si          0.89705      0.27959      0.03162  1.0000
  Si          0.40178      0.27388      0.49912  1.0000
  Si          0.88328      0.58612      0.16312  1.0000
  Si          0.70449      0.09622      0.82890  1.0000
  Si          0.61009      0.68149      0.99592  1.0000
  Si          0.08348      0.37112      0.66351  1.0000
  Si          0.29449      0.89672      0.32967  1.0000
  Si          0.23634      0.31189      0.96273  1.0000
  Si          0.66223      0.89504      0.29742  1.0000
  Si          0.08434      0.74588      0.63169  1.0000
  Si          0.76847      0.64530      0.46892  1.0000
  Si          0.33415      0.10047      0.80237  1.0000
  Si          0.88615      0.21918      0.13346  1.0000
  Si          0.33653      0.23372      0.39638  1.0000
  Si          0.91832      0.65360      0.06112  1.0000
  Si          0.72914      0.06501      0.72639  1.0000
  Ge          0.64909      0.73014      0.89228  1.0000
  Ge          0.09845      0.33431      0.56004  1.0000
  Si          0.23304      0.88875      0.22703  1.0000
  Si          0.96125      0.09963      0.98072  1.0000
  Si          0.87637      0.83130      0.31480  1.0000
  Si          0.12955      0.01688      0.64664  1.0000
  Si          0.04300      0.87123      0.48003  1.0000
  Si          0.10058      0.13859      0.81281  1.0000
  Si          0.82988      0.94042      0.14723  1.0000
  Si          0.11687      0.96062      0.37984  1.0000
  Si          0.85405      0.86656      0.04768  1.0000
  Si          0.00141      0.11938      0.71263  1.0000
  Si          0.87261      0.01244      0.87918  1.0000
  Si          0.14986      0.10867      0.54533  1.0000
  Si          0.95271      0.82829      0.21361  1.0000
  O2          0.92782      0.98494      0.01482  1.0000
  O2          0.99788      0.92023      0.34619  1.0000
  O2          0.04085      0.04593      0.67767  1.0000
  O2          0.07550      0.98738      0.51310  1.0000
  O2          0.99389      0.05473      0.84837  1.0000
  O2          0.91737      0.91623      0.18312  1.0000
  O1          0.33847      0.56579      0.34846  1.0000
  O1          0.39433      0.73693      0.68165  1.0000
  O1          0.23948      0.64360      0.01439  1.0000
  O1          0.66016      0.41983      0.82883  1.0000
  O1          0.54272      0.20926      0.16479  1.0000
  O3          0.77428      0.32735      0.50272  1.0000
  O1          0.58273      0.33189      0.99673  1.0000
  O1          0.74103      0.39256      0.66101  1.0000
  O1          0.64992      0.21798      0.33401  1.0000
  O3          0.44386      0.65200      0.52039  1.0000
  O3          0.20117      0.54612      0.18598  1.0000
  O3          0.32968      0.76389      0.85355  1.0000
  O2          0.11263      0.18912      0.98256  1.0000
  O2          0.78437      0.88924      0.31744  1.0000
  O2          0.07132      0.86591      0.64801  1.0000
  O2          0.89449      0.77282      0.48624  1.0000
  O2          0.20990      0.10137      0.81997  1.0000
  O2          0.86966      0.08739      0.15283  1.0000
  O2          0.20644      0.11204      0.37715  1.0000
  O2          0.92229      0.78274      0.04398  1.0000
  O2          0.84974      0.05608      0.70819  1.0000
  O3          0.78028      0.86586      0.87146  1.0000
  O3          0.09717      0.20282      0.53647  1.0000
  O2          0.10127      0.87647      0.20817  1.0000
  O2          0.92268      0.83705      0.26475  1.0000
  O2          0.12718      0.06370      0.59660  1.0000
  O2          0.91478      0.04338      0.93114  1.0000
  O2          0.04199      0.10247      0.76259  1.0000
  O2          0.86324      0.91618      0.09789  1.0000
  O2          0.06716      0.92075      0.42944  1.0000
  O2          0.89574      0.18032      0.99483  1.0000
  O2          0.80379      0.68580      0.33053  1.0000
  O2          0.27444      0.08859      0.66405  1.0000
  O3          0.12247      0.80247      0.49068  1.0000
  O3          0.16254      0.28676      0.82181  1.0000
  O3          0.68236      0.85717      0.15645  1.0000
  O2          0.19551      0.89246      0.36609  1.0000
  O2          0.70665      0.78123      0.03375  1.0000
  O2          0.06824      0.26809      0.70135  1.0000
  O2          0.80235      0.09051      0.86513  1.0000
  O2          0.30006      0.18021      0.53538  1.0000
  O2          0.87060      0.68290      0.19728  1.0000
  O3          0.30346      0.63390      0.26375  1.0000
  O3          0.36401      0.65400      0.60019  1.0000
  O3          0.34418      0.67896      0.93199  1.0000
  O1          0.70052      0.35755      0.75245  1.0000
  O1          0.64081      0.33557      0.08724  1.0000
  O1          0.66455      0.27767      0.42501  1.0000
  O3          0.35736      0.30802      0.98179  1.0000
  O3          0.67562      0.02441      0.31451  1.0000
  O3          0.96273      0.62031      0.65014  1.0000
  O3          0.65102      0.64663      0.49205  1.0000
  O3          0.33307      0.97875      0.82457  1.0000
  O3          0.00734      0.33155      0.15828  1.0000
  O3          0.32343      0.35566      0.38623  1.0000
  O3          0.05393      0.66976      0.05194  1.0000
  O3          0.60500      0.93282      0.71789  1.0000
  O1          0.66747      0.61029      0.87512  1.0000
  O3          0.95636      0.32015      0.54420  1.0000
  O3          0.34309      0.01851      0.20806  1.0000
  O3          0.76803      0.27997      0.02500  1.0000
  O3          0.70997      0.45789      0.36074  1.0000
  O3          0.50564      0.22291      0.69116  1.0000
  O3          0.26138      0.70414      0.53087  1.0000
  O3          0.27293      0.52639      0.86334  1.0000
  O3          0.43830      0.72844      0.19335  1.0000
  O3          0.30602      0.77274      0.33938  1.0000
  O3          0.47192      0.65829      0.00832  1.0000
  O3          0.20311      0.50380      0.67753  1.0000
  O3          0.70563      0.22514      0.83695  1.0000
  O3          0.53271      0.27783      0.50756  1.0000
  O3          0.75790      0.45080      0.16884  1.0000
  O3          0.81807      0.53401      0.03216  1.0000
  O3          0.45320      0.24558      0.36998  1.0000
  O3          0.71969      0.17321      0.69870  1.0000
  O3          0.22620      0.46819      0.53950  1.0000
  O3          0.51150      0.71834      0.86902  1.0000
  O2          0.25298      0.77658      0.20816  1.0000
  O3          0.53800      0.77368      0.31731  1.0000
  O3          0.23543      0.43721      0.97965  1.0000
  O3          0.21096      0.75626      0.65273  1.0000
  O3          0.45690      0.22807      0.81750  1.0000
  O3          0.78097      0.52754      0.48456  1.0000
  O3          0.75829      0.22062      0.14460  1.0000
  O3          0.22512      0.30034      0.90887  1.0000
  O3          0.66634      0.88707      0.24375  1.0000
  O3          0.08311      0.75076      0.57761  1.0000
  O2          0.76006      0.65561      0.41460  1.0000
  O2          0.31736      0.08330      0.74798  1.0000
  O2          0.90590      0.22063      0.07969  1.0000
  O2          0.34069      0.21244      0.44992  1.0000
  O2          0.88400      0.64337      0.11347  1.0000
  O2          0.75853      0.09569      0.77951  1.0000
  O3          0.65922      0.75658      0.94941  1.0000
  O3          0.10689      0.31843      0.61727  1.0000
  O2          0.22684      0.88742      0.28096  1.0000
  O3          0.61226      0.55196      0.99809  1.0000
  O3          0.42769      0.02224      0.33586  1.0000
  O3          0.95501      0.37919      0.66159  1.0000
  O3          0.41489      0.41156      0.50624  1.0000
  O3          0.56682      0.97301      0.83651  1.0000
  O3          0.00808      0.58126      0.17608  1.0000
  O3          0.56492      0.55790      0.35635  1.0000
  O3          0.01525      0.41813      0.02311  1.0000
  O3          0.40712      0.98021      0.69008  1.0000
  O1          0.42486      0.42393      0.84257  1.0000
  O3          0.00669      0.54029      0.51301  1.0000
  O1          0.55476      0.98875      0.17935  1.0000
  O1          0.58262      0.15805      0.25143  1.0000
  O3          0.85541      0.44366      0.58033  1.0000
  O1          0.55589      0.37281      0.91433  1.0000
  O1          0.38331      0.83019      0.76574  1.0000
  O1          0.16834      0.55694      0.10089  1.0000
  O1          0.44331      0.58231      0.43345  1.0000
  F           0.46819      0.92235      0.26782  1.0000
  F           0.12377      0.55706      0.60444  1.0000
  F           0.45777      0.51065      0.93281  1.0000
  F           0.54980      0.12468      0.76989  1.0000
  F           0.92839      0.44716      0.10542  1.0000
  F           0.57331      0.42429      0.44009  1.0000
