data_cif

_audit_creation_method             'generated by GULP'

_symmetry_space_group_name_H-M     'P 1'
_symmetry_Int_Tables_number        1
_symmetry_cell_setting             triclinic

_cell_length_a                       12.1975
_cell_length_b                       12.1783
_cell_length_c                       29.9025
_cell_angle_alpha                   90.6745
_cell_angle_beta                    89.0543
_cell_angle_gamma                  120.2171

loop_
_atom_site_label
_atom_site_fract_x
_atom_site_fract_y
_atom_site_fract_z
_atom_site_occupancy
  Ge          0.69960      0.37570      0.03389  1.0000
  Ge          0.64462      0.32394      0.36880  1.0000
  Ge          0.67917      0.28812      0.70354  1.0000
  Ge          0.31532      0.61841      0.52274  1.0000
  Ge          0.38942      0.67637      0.86270  1.0000
  Ge          0.35611      0.71296      0.19753  1.0000
  Ge          0.38525      0.67380      0.29582  1.0000
  Si          0.31850      0.63213      0.96543  1.0000
  Ge          0.31915      0.67777      0.62734  1.0000
  Ge          0.63341      0.31572      0.80332  1.0000
  Si          0.71882      0.37096      0.46613  1.0000
  Si          0.71782      0.32436      0.13545  1.0000
  Ge          0.52297      0.42106      0.97342  1.0000
  Ge          0.58239      0.09505      0.30561  1.0000
  Ge          0.89963      0.45516      0.63585  1.0000
  Ge          0.49335      0.56628      0.46050  1.0000
  Ge          0.43924      0.89849      0.79706  1.0000
  Ge          0.13969      0.54846      0.13029  1.0000
  Si          0.43335      0.50069      0.35695  1.0000
  Ge          0.09392      0.57707      0.02973  1.0000
  Ge          0.49908      0.90362      0.69175  1.0000
  Ge          0.57963      0.48240      0.87374  1.0000
  Ge          0.93356      0.42571      0.53446  1.0000
  Ge          0.54402      0.10078      0.19938  1.0000
  Si          0.30729      0.39284      0.84663  1.0000
  Si          0.62973      0.89746      0.17968  1.0000
  Si          0.11441      0.69951      0.50996  1.0000
  Ge          0.72606      0.59194      0.34095  1.0000
  Si          0.41181      0.10636      0.67720  1.0000
  Ge          0.90311      0.29667      0.01115  1.0000
  Ge          0.42615      0.27847      0.47517  1.0000
  Ge          0.91510      0.61327      0.14375  1.0000
  Si          0.72581      0.11708      0.80998  1.0000
  Ge          0.60444      0.71690      0.98081  1.0000
  Si          0.12366      0.39187      0.64130  1.0000
  Si          0.29382      0.86869      0.30920  1.0000
  Si          0.24901      0.34760      0.94925  1.0000
  Si          0.66938      0.89613      0.28230  1.0000
  Si          0.10053      0.74124      0.61314  1.0000
  Si          0.77681      0.64948      0.44452  1.0000
  Si          0.35229      0.09398      0.77999  1.0000
  Si          0.93300      0.26216      0.11379  1.0000
  Si          0.35957      0.22085      0.37191  1.0000
  Si          0.90786      0.66955      0.04115  1.0000
  Si          0.78209      0.10724      0.70738  1.0000
  Si          0.67870      0.76305      0.87786  1.0000
  Si          0.11454      0.32857      0.53918  1.0000
  Si          0.25668      0.89632      0.20663  1.0000
  Si          0.97080      0.12101      0.95973  1.0000
  Si          0.89514      0.85078      0.29346  1.0000
  Si          0.16114      0.01951      0.62762  1.0000
  Si          0.04768      0.87428      0.46087  1.0000
  Si          0.13342      0.14950      0.79392  1.0000
  Si          0.88217      0.98923      0.12861  1.0000
  Si          0.12710      0.95334      0.35908  1.0000
  Si          0.85717      0.89456      0.02780  1.0000
  Si          0.05278      0.14866      0.69281  1.0000
  Si          0.89550      0.03787      0.85882  1.0000
  Si          0.17247      0.10702      0.52689  1.0000
  Si          0.98848      0.86474      0.19383  1.0000
  O2          0.94315      0.00349      0.99167  1.0000
  O2          0.00641      0.92336      0.32952  1.0000
  O2          0.08046      0.05750      0.66112  1.0000
  O2          0.08106      0.99187      0.49387  1.0000
  O2          0.00956      0.06657      0.82441  1.0000
  O2          0.96760      0.95434      0.15958  1.0000
  O3          0.35083      0.54585      0.32988  1.0000
  O1          0.44839      0.76969      0.65915  1.0000
  O3          0.23013      0.66429      0.99323  1.0000
  O1          0.66558      0.42716      0.84163  1.0000
  O3          0.60381      0.24038      0.16865  1.0000
  O3          0.79626      0.34312      0.50024  1.0000
  O1          0.55696      0.33703      0.01093  1.0000
  O1          0.78162      0.42412      0.67166  1.0000
  O1          0.67359      0.21302      0.34002  1.0000
  O1          0.44578      0.65668      0.48939  1.0000
  O1          0.26550      0.58402      0.16171  1.0000
  O1          0.35368      0.76910      0.82995  1.0000
  O2          0.11580      0.23322      0.96844  1.0000
  O2          0.79344      0.89664      0.30224  1.0000
  O2          0.10309      0.86885      0.63205  1.0000
  O2          0.89832      0.77351      0.46610  1.0000
  O2          0.22384      0.08959      0.79855  1.0000
  O2          0.93208      0.13829      0.13493  1.0000
  O2          0.22851      0.10185      0.35298  1.0000
  O2          0.89340      0.78496      0.02121  1.0000
  O2          0.90303      0.09530      0.69071  1.0000
  O2          0.79928      0.88813      0.85622  1.0000
  O2          0.12814      0.21013      0.52137  1.0000
  O2          0.13679      0.90707      0.18943  1.0000
  O2          0.95601      0.88984      0.24404  1.0000
  O2          0.14767      0.05564      0.57749  1.0000
  O2          0.95296      0.07764      0.90817  1.0000
  O2          0.09344      0.14372      0.74298  1.0000
  O2          0.89418      0.95508      0.07731  1.0000
  O2          0.08332      0.92352      0.41046  1.0000
  O3          0.88227      0.17687      0.97297  1.0000
  O3          0.82477      0.70078      0.30067  1.0000
  O2          0.30859      0.09519      0.64104  1.0000
  O2          0.12620      0.80651      0.47488  1.0000
  O2          0.20671      0.29560      0.81013  1.0000
  O2          0.73581      0.90833      0.14381  1.0000
  O2          0.18958      0.86872      0.34418  1.0000
  O3          0.70898      0.83204      0.01897  1.0000
  O2          0.12922      0.29482      0.67710  1.0000
  O2          0.82328      0.11339      0.84605  1.0000
  O3          0.31873      0.16916      0.51441  1.0000
  O3          0.90541      0.71737      0.18251  1.0000
  O1          0.34104      0.61613      0.24342  1.0000
  O1          0.37219      0.68874      0.57335  1.0000
  O3          0.31814      0.66642      0.91319  1.0000
  O1          0.68119      0.37532      0.75065  1.0000
  O3          0.66342      0.30481      0.08574  1.0000
  O3          0.73126      0.32785      0.41626  1.0000
  O3          0.35840      0.32494      0.96689  1.0000
  O3          0.67727      0.02521      0.29540  1.0000
  O3          0.97049      0.62312      0.62753  1.0000
  O3          0.65641      0.66370      0.45660  1.0000
  O3          0.33882      0.95990      0.79136  1.0000
  O3          0.06742      0.38079      0.12321  1.0000
  O2          0.36242      0.34699      0.35239  1.0000
  O3          0.02854      0.67499      0.01751  1.0000
  O3          0.66227      0.98469      0.68550  1.0000
  O3          0.68820      0.64471      0.86015  1.0000
  O3          0.99036      0.31926      0.51955  1.0000
  O3          0.38219      0.02213      0.18920  1.0000
  O1          0.76983      0.30807      0.00309  1.0000
  O1          0.72565      0.45447      0.33184  1.0000
  O3          0.54219      0.23266      0.66814  1.0000
  O3          0.23730      0.68705      0.49818  1.0000
  O3          0.32212      0.52914      0.83650  1.0000
  O3          0.50114      0.77493      0.16584  1.0000
  O3          0.28672      0.73428      0.31312  1.0000
  O3          0.46502      0.71963      0.98135  1.0000
  O3          0.25823      0.52084      0.64344  1.0000
  O3          0.72970      0.24791      0.81587  1.0000
  O3          0.56662      0.28133      0.47990  1.0000
  O3          0.77254      0.47147      0.14838  1.0000
  O3          0.77719      0.54062      0.03014  1.0000
  O3          0.47729      0.21083      0.35431  1.0000
  O3          0.79265      0.23450      0.69014  1.0000
  O3          0.24110      0.45394      0.52140  1.0000
  O3          0.55345      0.76156      0.85979  1.0000
  O3          0.24938      0.77266      0.18558  1.0000
  O3          0.54621      0.77792      0.30424  1.0000
  O2          0.27744      0.48247      0.96949  1.0000
  O3          0.21549      0.73338      0.63584  1.0000
  O3          0.47126      0.20115      0.80579  1.0000
  O2          0.75612      0.52124      0.46728  1.0000
  O2          0.82464      0.28246      0.13889  1.0000
  O2          0.23911      0.34071      0.89526  1.0000
  O2          0.67732      0.88043      0.22840  1.0000
  O2          0.12502      0.76203      0.55953  1.0000
  O3          0.80058      0.65905      0.39150  1.0000
  O2          0.35427      0.11246      0.72632  1.0000
  O3          0.90109      0.22711      0.06201  1.0000
  O3          0.34615      0.21345      0.42583  1.0000
  O3          0.92789      0.69180      0.09449  1.0000
  O2          0.77779      0.09766      0.76192  1.0000
  O3          0.68974      0.77945      0.93150  1.0000
  O2          0.10672      0.32057      0.59370  1.0000
  O2          0.24860      0.89222      0.26128  1.0000
  O1          0.57433      0.57036      0.99620  1.0000
  O3          0.43350      0.97501      0.32324  1.0000
  O3          0.01647      0.42344      0.65525  1.0000
  O1          0.44828      0.42608      0.48703  1.0000
  O3          0.58345      0.00375      0.82059  1.0000
  O1          0.03276      0.58526      0.15604  1.0000
  O3          0.57473      0.57077      0.33564  1.0000
  O1          0.03786      0.43442      0.99898  1.0000
  O3          0.42455      0.98105      0.67099  1.0000
  O3          0.43867      0.39657      0.84080  1.0000
  O3          0.98694      0.56937      0.50263  1.0000
  O3          0.62096      0.02533      0.17732  1.0000
  O1          0.57032      0.14803      0.25343  1.0000
  O1          0.84680      0.39028      0.58414  1.0000
  O1          0.59759      0.42283      0.92429  1.0000
  O1          0.45724      0.84845      0.74518  1.0000
  O1          0.18371      0.61257      0.07777  1.0000
  O3          0.42882      0.53980      0.40794  1.0000
  F           0.44024      0.85522      0.23651  1.0000
  F           0.08828      0.52336      0.56736  1.0000
  F           0.48496      0.54488      0.90819  1.0000
  F           0.58910      0.13632      0.73616  1.0000
  F           0.94090      0.47560      0.06808  1.0000
  F           0.58061      0.41311      0.40062  1.0000
