data_cif

_audit_creation_method             'generated by GULP'

_symmetry_space_group_name_H-M     'P 1'
_symmetry_Int_Tables_number        1
_symmetry_cell_setting             triclinic

_cell_length_a                       12.1762
_cell_length_b                       12.1831
_cell_length_c                       29.9501
_cell_angle_alpha                   90.3096
_cell_angle_beta                    88.9657
_cell_angle_gamma                  120.0431

loop_
_atom_site_label
_atom_site_fract_x
_atom_site_fract_y
_atom_site_fract_z
_atom_site_occupancy
  Si          0.69960      0.37570      0.03389  1.0000
  Ge          0.63070      0.32213      0.37091  1.0000
  Ge          0.68530      0.29143      0.70709  1.0000
  Ge          0.30166      0.60999      0.53740  1.0000
  Ge          0.39089      0.68718      0.86915  1.0000
  Ge          0.34550      0.71395      0.20301  1.0000
  Ge          0.37761      0.67741      0.30111  1.0000
  Si          0.31696      0.62947      0.97127  1.0000
  Ge          0.33348      0.68106      0.63538  1.0000
  Ge          0.64808      0.32906      0.80629  1.0000
  Ge          0.69693      0.35784      0.46900  1.0000
  Ge          0.71464      0.32791      0.13687  1.0000
  Ge          0.52905      0.42563      0.97476  1.0000
  Ge          0.57369      0.09737      0.30681  1.0000
  Ge          0.91311      0.45608      0.64184  1.0000
  Ge          0.47025      0.55105      0.47284  1.0000
  Ge          0.44941      0.91527      0.80581  1.0000
  Ge          0.13033      0.54883      0.13543  1.0000
  Ge          0.42404      0.50187      0.36692  1.0000
  Ge          0.09238      0.57603      0.03553  1.0000
  Ge          0.50344      0.90674      0.70099  1.0000
  Ge          0.58742      0.49152      0.87447  1.0000
  Ge          0.91566      0.40472      0.53584  1.0000
  Ge          0.53001      0.10101      0.20091  1.0000
  Ge          0.31001      0.40192      0.85086  1.0000
  Si          0.61844      0.89929      0.18293  1.0000
  Si          0.11692      0.69521      0.51652  1.0000
  Si          0.71605      0.59213      0.34912  1.0000
  Si          0.41676      0.10979      0.68333  1.0000
  Ge          0.90444      0.29983      0.01604  1.0000
  Si          0.40890      0.26523      0.48006  1.0000
  Si          0.90651      0.61300      0.14763  1.0000
  Si          0.73838      0.12988      0.81516  1.0000
  Ge          0.60428      0.71782      0.98542  1.0000
  Si          0.13808      0.39438      0.64770  1.0000
  Si          0.28659      0.87292      0.31392  1.0000
  Si          0.25060      0.34694      0.95446  1.0000
  Si          0.66173      0.89842      0.28545  1.0000
  Si          0.11275      0.74239      0.61921  1.0000
  Si          0.75793      0.64007      0.45178  1.0000
  Si          0.36408      0.11028      0.78594  1.0000
  Si          0.93099      0.26110      0.11871  1.0000
  Si          0.34616      0.21787      0.37791  1.0000
  Si          0.90307      0.66383      0.04565  1.0000
  Si          0.78824      0.11092      0.71266  1.0000
  Si          0.68015      0.77151      0.88268  1.0000
  Si          0.12129      0.32613      0.54555  1.0000
  Si          0.24531      0.89656      0.21186  1.0000
  Si          0.97355      0.12229      0.96639  1.0000
  Si          0.88276      0.84630      0.30033  1.0000
  Si          0.16558      0.01683      0.63321  1.0000
  Si          0.03126      0.86065      0.46690  1.0000
  Si          0.13703      0.15686      0.79864  1.0000
  Si          0.87320      0.98593      0.13360  1.0000
  Si          0.11467      0.94851      0.36555  1.0000
  Si          0.85349      0.89155      0.03351  1.0000
  Si          0.05645      0.14565      0.69773  1.0000
  Si          0.90253      0.04531      0.86498  1.0000
  Si          0.16050      0.09509      0.53193  1.0000
  Si          0.97674      0.85742      0.19928  1.0000
  O2          0.94198      0.00189      0.99796  1.0000
  O2          0.99734      0.92298      0.33454  1.0000
  O2          0.08221      0.05447      0.66545  1.0000
  O2          0.06880      0.97735      0.50068  1.0000
  O2          0.01790      0.07124      0.83149  1.0000
  O2          0.94951      0.94631      0.16726  1.0000
  O1          0.34137      0.55469      0.33665  1.0000
  O1          0.45282      0.76950      0.67132  1.0000
  O3          0.23022      0.66249      0.99973  1.0000
  O1          0.68091      0.44331      0.84308  1.0000
  O1          0.58504      0.23725      0.16938  1.0000
  O1          0.77975      0.32213      0.50561  1.0000
  O3          0.56897      0.33936      0.01053  1.0000
  O1          0.78828      0.42504      0.67391  1.0000
  O1          0.66532      0.22221      0.33821  1.0000
  O1          0.43563      0.64331      0.50414  1.0000
  O1          0.25145      0.58352      0.16896  1.0000
  O1          0.36060      0.79104      0.84048  1.0000
  O2          0.11940      0.23113      0.97556  1.0000
  O2          0.78825      0.90207      0.30482  1.0000
  O2          0.11047      0.86708      0.63844  1.0000
  O2          0.88052      0.76755      0.47104  1.0000
  O2          0.24020      0.11237      0.80591  1.0000
  O2          0.93228      0.13632      0.13841  1.0000
  O2          0.21378      0.09761      0.36186  1.0000
  O2          0.88429      0.77756      0.02694  1.0000
  O2          0.90771      0.09722      0.69511  1.0000
  O2          0.80175      0.89722      0.86192  1.0000
  O2          0.10918      0.19315      0.52950  1.0000
  O2          0.12676      0.91160      0.19598  1.0000
  O2          0.93632      0.86476      0.24997  1.0000
  O2          0.15263      0.04881      0.58245  1.0000
  O2          0.95610      0.08064      0.91477  1.0000
  O2          0.09159      0.13192      0.74785  1.0000
  O2          0.88903      0.94813      0.08322  1.0000
  O2          0.06851      0.91177      0.41654  1.0000
  O3          0.88500      0.17914      0.97892  1.0000
  O2          0.80962      0.69784      0.31277  1.0000
  O2          0.31233      0.09538      0.64715  1.0000
  O2          0.10481      0.78695      0.48012  1.0000
  O3          0.19965      0.30228      0.81138  1.0000
  O2          0.72478      0.91211      0.14659  1.0000
  O2          0.18189      0.86955      0.34957  1.0000
  O3          0.70609      0.83145      0.02387  1.0000
  O2          0.13759      0.29285      0.68319  1.0000
  O2          0.83579      0.12599      0.85117  1.0000
  O2          0.30658      0.16244      0.51564  1.0000
  O2          0.90253      0.71140      0.18374  1.0000
  O1          0.33449      0.61907      0.24890  1.0000
  O1          0.39487      0.69598      0.58311  1.0000
  O3          0.31275      0.66214      0.91925  1.0000
  O1          0.69108      0.38383      0.75282  1.0000
  O3          0.66382      0.31413      0.08276  1.0000
  O1          0.71541      0.31471      0.41675  1.0000
  O3          0.36489      0.32673      0.96936  1.0000
  O3          0.66894      0.02721      0.29869  1.0000
  O3          0.98331      0.62138      0.63271  1.0000
  O3          0.63576      0.64756      0.46456  1.0000
  O3          0.34878      0.97569      0.79765  1.0000
  O3          0.06306      0.38138      0.12906  1.0000
  O3          0.34656      0.33960      0.35741  1.0000
  O3          0.02736      0.67550      0.02327  1.0000
  O3          0.66647      0.98899      0.69242  1.0000
  O3          0.68888      0.65499      0.86261  1.0000
  O3          0.99891      0.32534      0.52600  1.0000
  O3          0.36829      0.01965      0.19170  1.0000
  O3          0.77111      0.31458      0.00711  1.0000
  O3          0.71217      0.46302      0.33713  1.0000
  O3          0.54796      0.23349      0.67207  1.0000
  O3          0.24197      0.69034      0.50416  1.0000
  O1          0.32580      0.54778      0.83996  1.0000
  O3          0.48964      0.77619      0.17026  1.0000
  O3          0.27950      0.73913      0.31764  1.0000
  O3          0.46462      0.71974      0.98558  1.0000
  O3          0.27200      0.52149      0.65157  1.0000
  O3          0.74605      0.26299      0.81892  1.0000
  O3          0.53568      0.25858      0.48407  1.0000
  O3          0.77319      0.48417      0.15288  1.0000
  O2          0.77756      0.53106      0.03222  1.0000
  O3          0.46376      0.20832      0.35903  1.0000
  O3          0.80001      0.23827      0.69434  1.0000
  O3          0.24783      0.44254      0.52589  1.0000
  O3          0.55579      0.77450      0.86680  1.0000
  O3          0.23557      0.77108      0.19216  1.0000
  O3          0.53993      0.78021      0.30799  1.0000
  O2          0.28031      0.48114      0.97567  1.0000
  O3          0.22952      0.73957      0.64189  1.0000
  O3          0.48595      0.21544      0.81060  1.0000
  O3          0.75402      0.52007      0.47509  1.0000
  O3          0.82016      0.27472      0.14425  1.0000
  O3          0.23124      0.33757      0.90151  1.0000
  O2          0.66832      0.88449      0.23155  1.0000
  O2          0.12935      0.76082      0.56524  1.0000
  O2          0.77946      0.64370      0.39789  1.0000
  O2          0.36392      0.12628      0.73209  1.0000
  O3          0.89900      0.22802      0.06684  1.0000
  O2          0.33923      0.21802      0.43247  1.0000
  O2          0.91826      0.67914      0.09953  1.0000
  O2          0.78726      0.10533      0.76727  1.0000
  O3          0.69109      0.77884      0.93629  1.0000
  O2          0.11616      0.32276      0.60014  1.0000
  O2          0.24194      0.89895      0.26640  1.0000
  O1          0.57459      0.57013      0.99935  1.0000
  O3          0.42679      0.97954      0.32706  1.0000
  O3          0.03188      0.42942      0.66122  1.0000
  O3          0.44223      0.40572      0.49335  1.0000
  O3          0.59513      0.02173      0.82763  1.0000
  O3          0.01637      0.58344      0.15789  1.0000
  O3          0.57832      0.57964      0.34563  1.0000
  O1          0.03921      0.43565      0.00313  1.0000
  O3          0.42714      0.98282      0.67999  1.0000
  O1          0.44967      0.40509      0.84221  1.0000
  O3          0.99162      0.55717      0.51364  1.0000
  O3          0.60888      0.02648      0.17944  1.0000
  O1          0.55871      0.14805      0.25477  1.0000
  O1          0.86690      0.38811      0.58990  1.0000
  O1          0.60408      0.43313      0.92536  1.0000
  O1          0.46769      0.85890      0.75536  1.0000
  O1          0.18303      0.61367      0.08353  1.0000
  O1          0.40448      0.53114      0.42098  1.0000
  F           0.43083      0.85782      0.24062  1.0000
  F           0.15698      0.55088      0.57465  1.0000
  F           0.47922      0.54544      0.90925  1.0000
  F           0.59783      0.14417      0.74164  1.0000
  F           0.94394      0.47185      0.07259  1.0000
  F           0.56918      0.40606      0.40732  1.0000
