data_cif

_audit_creation_method             'generated by GULP'

_symmetry_space_group_name_H-M     'P 1'
_symmetry_Int_Tables_number        1
_symmetry_cell_setting             triclinic

_cell_length_a                       12.1902
_cell_length_b                       12.1956
_cell_length_c                       29.9470
_cell_angle_alpha                   89.8765
_cell_angle_beta                    89.4917
_cell_angle_gamma                  120.0044

loop_
_atom_site_label
_atom_site_fract_x
_atom_site_fract_y
_atom_site_fract_z
_atom_site_occupancy
  Ge          0.69960      0.37570      0.03389  1.0000
  Ge          0.60710      0.31235      0.36966  1.0000
  Ge          0.67260      0.25662      0.70299  1.0000
  Ge          0.28636      0.59428      0.54047  1.0000
  Ge          0.37585      0.65707      0.87658  1.0000
  Ge          0.31576      0.69568      0.20650  1.0000
  Ge          0.35677      0.67183      0.30494  1.0000
  Ge          0.30512      0.61819      0.97603  1.0000
  Ge          0.31148      0.65774      0.63964  1.0000
  Ge          0.63666      0.30309      0.80016  1.0000
  Ge          0.67930      0.34205      0.46732  1.0000
  Si          0.68220      0.30421      0.13581  1.0000
  Ge          0.52349      0.42386      0.97046  1.0000
  Ge          0.55338      0.09069      0.30383  1.0000
  Si          0.88759      0.43406      0.63614  1.0000
  Ge          0.45709      0.53814      0.47695  1.0000
  Ge          0.43647      0.88422      0.81316  1.0000
  Si          0.10476      0.51850      0.14309  1.0000
  Ge          0.40460      0.49619      0.37097  1.0000
  Ge          0.08397      0.56594      0.04326  1.0000
  Ge          0.48428      0.87202      0.70723  1.0000
  Ge          0.58146      0.47641      0.86537  1.0000
  Ge          0.90171      0.38927      0.53260  1.0000
  Ge          0.50329      0.08278      0.19784  1.0000
  Si          0.29047      0.39063      0.85087  1.0000
  Si          0.58685      0.87651      0.18370  1.0000
  Si          0.10471      0.68075      0.51473  1.0000
  Si          0.69418      0.58456      0.35092  1.0000
  Si          0.39898      0.07355      0.68479  1.0000
  Ge          0.90057      0.29199      0.01520  1.0000
  Si          0.39343      0.25150      0.48166  1.0000
  Ge          0.88601      0.58537      0.15189  1.0000
  Si          0.72322      0.10668      0.81766  1.0000
  Si          0.59608      0.71171      0.98160  1.0000
  Si          0.10746      0.37227      0.64740  1.0000
  Si          0.26713      0.86868      0.31453  1.0000
  Si          0.24210      0.33636      0.95348  1.0000
  Si          0.63945      0.88958      0.28603  1.0000
  Ge          0.08857      0.71971      0.61893  1.0000
  Si          0.74293      0.62632      0.45356  1.0000
  Si          0.35230      0.08335      0.78720  1.0000
  Ge          0.90044      0.23928      0.12045  1.0000
  Si          0.32468      0.21128      0.37970  1.0000
  Si          0.90078      0.66295      0.05005  1.0000
  Si          0.76852      0.07369      0.71621  1.0000
  Si          0.66016      0.76054      0.87907  1.0000
  Si          0.10471      0.30836      0.54597  1.0000
  Si          0.21946      0.88121      0.21235  1.0000
  Si          0.96787      0.11217      0.96535  1.0000
  Si          0.86107      0.83882      0.30172  1.0000
  Si          0.14745      0.99688      0.63516  1.0000
  Si          0.01722      0.84653      0.46738  1.0000
  Si          0.13206      0.13904      0.80081  1.0000
  Si          0.83955      0.95919      0.13501  1.0000
  Si          0.09474      0.94257      0.36665  1.0000
  Si          0.84276      0.88093      0.03321  1.0000
  Si          0.04051      0.12841      0.70064  1.0000
  Si          0.89352      0.02799      0.86518  1.0000
  Si          0.14717      0.07893      0.53338  1.0000
  Si          0.94599      0.83099      0.20155  1.0000
  O2          0.93028      0.99765      0.00037  1.0000
  O2          0.97631      0.91590      0.33577  1.0000
  O2          0.07886      0.05100      0.66696  1.0000
  O2          0.05638      0.96040      0.50238  1.0000
  O2          0.00917      0.05542      0.83195  1.0000
  O2          0.91076      0.90665      0.16587  1.0000
  O1          0.32210      0.55298      0.34231  1.0000
  O1          0.42840      0.73403      0.67767  1.0000
  O1          0.23023      0.65541      0.01436  1.0000
  O1          0.66744      0.42807      0.83387  1.0000
  O3          0.55615      0.21642      0.16384  1.0000
  O1          0.76721      0.30575      0.50195  1.0000
  O1          0.56418      0.34044      0.00534  1.0000
  O3          0.76711      0.38548      0.66605  1.0000
  O1          0.64221      0.21813      0.33423  1.0000
  O1          0.42368      0.62798      0.50961  1.0000
  O3          0.21900      0.55747      0.17504  1.0000
  O1          0.34379      0.76274      0.84624  1.0000
  O2          0.11683      0.21147      0.97277  1.0000
  O2          0.76749      0.89574      0.30536  1.0000
  O3          0.07647      0.84744      0.64016  1.0000
  O2          0.86713      0.75191      0.47281  1.0000
  O2          0.22688      0.08456      0.80644  1.0000
  O3          0.90021      0.10665      0.14339  1.0000
  O2          0.19101      0.09234      0.36387  1.0000
  O2          0.89827      0.78634      0.03128  1.0000
  O2          0.88867      0.05809      0.70146  1.0000
  O2          0.79223      0.88005      0.86113  1.0000
  O2          0.09593      0.17720      0.52999  1.0000
  O2          0.09635      0.88730      0.19568  1.0000
  O2          0.91464      0.85602      0.25152  1.0000
  O2          0.14019      0.03343      0.58399  1.0000
  O2          0.94539      0.05901      0.91527  1.0000
  O2          0.09157      0.12797      0.74961  1.0000
  O2          0.85262      0.93236      0.08314  1.0000
  O2          0.04878      0.90214      0.41740  1.0000
  O3          0.89115      0.18322      0.97481  1.0000
  O2          0.78677      0.69099      0.31475  1.0000
  O2          0.29462      0.05766      0.64810  1.0000
  O2          0.09248      0.77195      0.47740  1.0000
  O2          0.19843      0.28538      0.81511  1.0000
  O2          0.69049      0.88616      0.14725  1.0000
  O2          0.16462      0.86738      0.35015  1.0000
  O2          0.69709      0.80876      0.01788  1.0000
  O2          0.09833      0.27356      0.68554  1.0000
  O2          0.82627      0.10963      0.85298  1.0000
  O2          0.29300      0.14701      0.51709  1.0000
  O3          0.87504      0.68228      0.19244  1.0000
  O1          0.30953      0.60710      0.25366  1.0000
  O1          0.37498      0.67604      0.58755  1.0000
  O1          0.28838      0.65845      0.92294  1.0000
  O1          0.68521      0.35695      0.74724  1.0000
  O3          0.64677      0.29421      0.08385  1.0000
  O1          0.69248      0.29952      0.41455  1.0000
  O3          0.36238      0.32132      0.96360  1.0000
  O3          0.64838      0.02036      0.29700  1.0000
  O3          0.94778      0.58656      0.63145  1.0000
  O3          0.62217      0.63347      0.46837  1.0000
  O3          0.34352      0.95610      0.80325  1.0000
  O3          0.04367      0.36631      0.13411  1.0000
  O3          0.32493      0.33449      0.36058  1.0000
  O3          0.02236      0.66580      0.02894  1.0000
  O3          0.64672      0.95046      0.69731  1.0000
  O3          0.66086      0.63940      0.85817  1.0000
  O3          0.98330      0.30783      0.52520  1.0000
  O3          0.34054      0.00203      0.19029  1.0000
  O1          0.77306      0.31186      0.00334  1.0000
  O3          0.68812      0.45582      0.33730  1.0000
  O3          0.52986      0.19547      0.67127  1.0000
  O3          0.23194      0.67768      0.50556  1.0000
  O3          0.29641      0.52109      0.84059  1.0000
  O3          0.45701      0.75220      0.17317  1.0000
  O3          0.25993      0.73525      0.32012  1.0000
  O3          0.47050      0.71826      0.98644  1.0000
  O3          0.24110      0.49600      0.65396  1.0000
  O3          0.73188      0.24171      0.81921  1.0000
  O3          0.52009      0.24393      0.48406  1.0000
  O3          0.73852      0.44926      0.15081  1.0000
  O3          0.77116      0.53995      0.03464  1.0000
  O3          0.44005      0.20143      0.35913  1.0000
  O3          0.78128      0.19854      0.69462  1.0000
  O3          0.23149      0.42750      0.52821  1.0000
  O3          0.54301      0.77113      0.86204  1.0000
  O3          0.20720      0.75273      0.19510  1.0000
  O3          0.51939      0.77506      0.31055  1.0000
  O3          0.26038      0.45711      0.97976  1.0000
  O1          0.21158      0.71976      0.64519  1.0000
  O3          0.47370      0.20417      0.80747  1.0000
  O3          0.73976      0.50412      0.47492  1.0000
  O3          0.77874      0.25260      0.14507  1.0000
  O2          0.22382      0.33817      0.89987  1.0000
  O2          0.64141      0.86836      0.23248  1.0000
  O3          0.10859      0.74719      0.56197  1.0000
  O2          0.76022      0.63348      0.39950  1.0000
  O2          0.34626      0.09055      0.73304  1.0000
  O1          0.88219      0.20993      0.06451  1.0000
  O2          0.32132      0.20796      0.43425  1.0000
  O3          0.91131      0.67356      0.10381  1.0000
  O2          0.76826      0.07519      0.77070  1.0000
  O2          0.66812      0.76150      0.93362  1.0000
  O2          0.09555      0.30198      0.60044  1.0000
  O2          0.22004      0.89144      0.26673  1.0000
  O3          0.56396      0.56945      0.99284  1.0000
  O3          0.40814      0.97623      0.32598  1.0000
  O2          0.99921      0.40984      0.65484  1.0000
  O3          0.42839      0.39123      0.49619  1.0000
  O3          0.58200      0.00411      0.83226  1.0000
  O3          0.99310      0.53985      0.16492  1.0000
  O3          0.55711      0.57385      0.34858  1.0000
  O1          0.03937      0.43125      0.00946  1.0000
  O3          0.40952      0.94696      0.68323  1.0000
  O3          0.42750      0.40118      0.84594  1.0000
  O3          0.98168      0.54108      0.51039  1.0000
  O3          0.57776      0.00349      0.17786  1.0000
  O1          0.53619      0.13616      0.25088  1.0000
  O3          0.84981      0.37593      0.58662  1.0000
  O1          0.59510      0.43994      0.91946  1.0000
  O1          0.45316      0.83048      0.76167  1.0000
  O3          0.15238      0.59085      0.09586  1.0000
  O1          0.38912      0.52248      0.42551  1.0000
  F           0.40604      0.84482      0.24191  1.0000
  F           0.13850      0.53736      0.57523  1.0000
  F           0.43898      0.57102      0.90933  1.0000
  F           0.58280      0.11725      0.74313  1.0000
  F           0.91557      0.45208      0.07378  1.0000
  F           0.55036      0.39627      0.40841  1.0000
