data_cif

_audit_creation_method             'generated by GULP'

_symmetry_space_group_name_H-M     'P 1'
_symmetry_Int_Tables_number        1
_symmetry_cell_setting             triclinic

_cell_length_a                       12.1933
_cell_length_b                       12.1945
_cell_length_c                       30.0183
_cell_angle_alpha                   91.5358
_cell_angle_beta                    89.1870
_cell_angle_gamma                  119.9628

loop_
_atom_site_label
_atom_site_fract_x
_atom_site_fract_y
_atom_site_fract_z
_atom_site_occupancy
  Ge          0.69960      0.37570      0.03389  1.0000
  Ge          0.61590      0.33080      0.36523  1.0000
  Ge          0.66471      0.30126      0.69672  1.0000
  Ge          0.28888      0.61914      0.52451  1.0000
  Ge          0.37415      0.67307      0.85868  1.0000
  Ge          0.32573      0.72005      0.19324  1.0000
  Ge          0.35537      0.67828      0.29051  1.0000
  Si          0.30704      0.62712      0.96060  1.0000
  Ge          0.29771      0.69266      0.62919  1.0000
  Ge          0.60207      0.29972      0.80147  1.0000
  Ge          0.68453      0.37302      0.46426  1.0000
  Ge          0.68387      0.32242      0.13247  1.0000
  Ge          0.53241      0.42430      0.97027  1.0000
  Ge          0.55078      0.09742      0.30355  1.0000
  Ge          0.88501      0.47691      0.63243  1.0000
  Ge          0.46480      0.56696      0.45979  1.0000
  Ge          0.40962      0.88694      0.79428  1.0000
  Ge          0.10253      0.55056      0.12708  1.0000
  Ge          0.41002      0.50843      0.35495  1.0000
  Ge          0.08396      0.58403      0.02150  1.0000
  Ge          0.47683      0.91608      0.69578  1.0000
  Ge          0.56632      0.48348      0.86983  1.0000
  Ge          0.89945      0.42319      0.53237  1.0000
  Ge          0.50754      0.10362      0.19789  1.0000
  Si          0.29387      0.39051      0.84183  1.0000
  Si          0.59850      0.90501      0.17552  1.0000
  Ge          0.08308      0.69781      0.50735  1.0000
  Si          0.70183      0.59638      0.33985  1.0000
  Si          0.38573      0.09892      0.67509  1.0000
  Si          0.88271      0.29092      0.00881  1.0000
  Si          0.39315      0.28011      0.47063  1.0000
  Si          0.87730      0.61141      0.13807  1.0000
  Si          0.69629      0.10255      0.80848  1.0000
  Ge          0.59081      0.71346      0.97644  1.0000
  Si          0.10131      0.40597      0.64229  1.0000
  Si          0.26495      0.87367      0.30669  1.0000
  Ge          0.24692      0.34527      0.94508  1.0000
  Si          0.63933      0.89943      0.27792  1.0000
  Si          0.07801      0.75611      0.61085  1.0000
  Si          0.74709      0.65412      0.44248  1.0000
  Si          0.32239      0.08053      0.77734  1.0000
  Si          0.90383      0.26124      0.11116  1.0000
  Si          0.33091      0.22510      0.36844  1.0000
  Si          0.87786      0.66170      0.03581  1.0000
  Si          0.75301      0.09849      0.70674  1.0000
  Si          0.66395      0.76304      0.87438  1.0000
  Si          0.08634      0.33243      0.54065  1.0000
  Si          0.22310      0.89989      0.20497  1.0000
  Si          0.96541      0.12154      0.95846  1.0000
  Si          0.86146      0.84812      0.29151  1.0000
  Si          0.14416      0.03481      0.62435  1.0000
  Si          0.02105      0.87850      0.45657  1.0000
  Si          0.11088      0.14818      0.79000  1.0000
  Si          0.85204      0.98949      0.12591  1.0000
  Si          0.09680      0.95694      0.35585  1.0000
  Si          0.83783      0.89378      0.02535  1.0000
  Si          0.03091      0.16060      0.69017  1.0000
  Si          0.87677      0.03818      0.85719  1.0000
  Si          0.14617      0.11368      0.52336  1.0000
  Si          0.95408      0.86052      0.19074  1.0000
  O2          0.92154      0.00110      0.98982  1.0000
  O2          0.97960      0.93015      0.32443  1.0000
  O2          0.06286      0.07982      0.65442  1.0000
  O2          0.05618      0.99563      0.49105  1.0000
  O2          0.98994      0.07334      0.82193  1.0000
  O2          0.92911      0.95174      0.15968  1.0000
  O1          0.32369      0.55520      0.32420  1.0000
  O1          0.42484      0.78088      0.65995  1.0000
  O3          0.21645      0.66455      0.98748  1.0000
  O1          0.64545      0.42160      0.83604  1.0000
  O1          0.56865      0.24455      0.17089  1.0000
  O1          0.75771      0.33414      0.50154  1.0000
  O1          0.56163      0.33508      0.00408  1.0000
  O1          0.76388      0.43799      0.66925  1.0000
  O1          0.64634      0.22184      0.33534  1.0000
  O1          0.42270      0.65204      0.49420  1.0000
  O1          0.23247      0.59209      0.15648  1.0000
  O1          0.33058      0.76398      0.82991  1.0000
  O3          0.11246      0.21171      0.96539  1.0000
  O2          0.76437      0.90026      0.29740  1.0000
  O2          0.08289      0.88483      0.63058  1.0000
  O2          0.87129      0.77955      0.46216  1.0000
  O2          0.19494      0.08063      0.79425  1.0000
  O2          0.91124      0.14045      0.12996  1.0000
  O2          0.19946      0.10407      0.35113  1.0000
  O2          0.87927      0.78745      0.01883  1.0000
  O2          0.88142      0.10577      0.68783  1.0000
  O2          0.78577      0.88731      0.85427  1.0000
  O2          0.09062      0.20800      0.52329  1.0000
  O2          0.10398      0.91428      0.18947  1.0000
  O2          0.91014      0.86538      0.24096  1.0000
  O2          0.14045      0.06585      0.57305  1.0000
  O2          0.93386      0.07933      0.90664  1.0000
  O2          0.06823      0.14205      0.73928  1.0000
  O2          0.86814      0.95079      0.07563  1.0000
  O2          0.04949      0.92893      0.40652  1.0000
  O2          0.89032      0.19464      0.97246  1.0000
  O2          0.79434      0.70075      0.30409  1.0000
  O2          0.28977      0.10834      0.64017  1.0000
  O3          0.09700      0.80910      0.46837  1.0000
  O2          0.19347      0.29493      0.80441  1.0000
  O2          0.70458      0.91862      0.13921  1.0000
  O2          0.16019      0.87212      0.34171  1.0000
  O3          0.69034      0.82952      0.01555  1.0000
  O2          0.10344      0.30918      0.67853  1.0000
  O2          0.79615      0.10540      0.84501  1.0000
  O2          0.29102      0.18427      0.50678  1.0000
  O2          0.87903      0.71564      0.17353  1.0000
  O1          0.31141      0.62196      0.23764  1.0000
  O1          0.34129      0.69744      0.57402  1.0000
  O3          0.29521      0.64707      0.90861  1.0000
  O1          0.64019      0.34964      0.74720  1.0000
  O1          0.61539      0.29650      0.08167  1.0000
  O1          0.70268      0.33161      0.41115  1.0000
  O1          0.36794      0.32647      0.96006  1.0000
  O3          0.64546      0.02655      0.29345  1.0000
  O3          0.94387      0.63913      0.62427  1.0000
  O3          0.62632      0.66884      0.45297  1.0000
  O3          0.30542      0.94624      0.78925  1.0000
  O3          0.03448      0.38485      0.12116  1.0000
  O3          0.33088      0.34526      0.34746  1.0000
  O3          0.00002      0.66244      0.01402  1.0000
  O3          0.64029      0.97547      0.68379  1.0000
  O3          0.66759      0.64324      0.85400  1.0000
  O3          0.96262      0.32223      0.51969  1.0000
  O3          0.34638      0.02227      0.18622  1.0000
  O3          0.75552      0.29133      0.99944  1.0000
  O3          0.69685      0.46569      0.32950  1.0000
  O3          0.52243      0.22168      0.66747  1.0000
  O1          0.21257      0.68078      0.49557  1.0000
  O3          0.31744      0.52929      0.83037  1.0000
  O3          0.46962      0.78193      0.16150  1.0000
  O3          0.25740      0.73923      0.30843  1.0000
  O3          0.45212      0.72032      0.97526  1.0000
  O3          0.23439      0.53263      0.64340  1.0000
  O3          0.69784      0.23293      0.81272  1.0000
  O3          0.51886      0.27429      0.47518  1.0000
  O3          0.74614      0.48471      0.14547  1.0000
  O3          0.75143      0.54043      0.01937  1.0000
  O3          0.44867      0.21425      0.35123  1.0000
  O3          0.75396      0.22560      0.69292  1.0000
  O3          0.21356      0.45413      0.52385  1.0000
  O3          0.53774      0.76420      0.85928  1.0000
  O3          0.21331      0.77459      0.18374  1.0000
  O3          0.51742      0.77948      0.29820  1.0000
  O3          0.26073      0.48109      0.97066  1.0000
  O3          0.18209      0.73530      0.63507  1.0000
  O3          0.44338      0.18329      0.80452  1.0000
  O3          0.72892      0.53413      0.46826  1.0000
  O3          0.79148      0.26830      0.13692  1.0000
  O3          0.21954      0.34019      0.88844  1.0000
  O2          0.64771      0.88903      0.22389  1.0000
  O3          0.09838      0.77746      0.55819  1.0000
  O2          0.76646      0.65090      0.38886  1.0000
  O2          0.33071      0.10614      0.72439  1.0000
  O2          0.87946      0.23433      0.05786  1.0000
  O2          0.32238      0.22833      0.42287  1.0000
  O2          0.89105      0.67508      0.09009  1.0000
  O2          0.75231      0.08658      0.76073  1.0000
  O3          0.67773      0.77226      0.92800  1.0000
  O2          0.07727      0.33034      0.59483  1.0000
  O2          0.22145      0.90116      0.25942  1.0000
  O1          0.55658      0.56870      0.99273  1.0000
  O3          0.40465      0.97718      0.32219  1.0000
  O3          0.99299      0.43914      0.65499  1.0000
  O3          0.42425      0.42249      0.48221  1.0000
  O3          0.55663      0.98848      0.81865  1.0000
  O3          0.98817      0.58242      0.14880  1.0000
  O3          0.56417      0.58385      0.33508  1.0000
  O3          0.00674      0.42842      0.00214  1.0000
  O3          0.38890      0.97183      0.66494  1.0000
  O3          0.42291      0.38789      0.83831  1.0000
  O1          0.94647      0.55902      0.49913  1.0000
  O3          0.58654      0.03076      0.17418  1.0000
  O1          0.53116      0.14583      0.25242  1.0000
  O1          0.82133      0.39963      0.58336  1.0000
  O1          0.60394      0.44014      0.91930  1.0000
  O1          0.41674      0.82485      0.74372  1.0000
  O1          0.14197      0.60909      0.07399  1.0000
  O1          0.39504      0.54759      0.40888  1.0000
  F           0.40947      0.86080      0.23276  1.0000
  F           0.05862      0.53548      0.56474  1.0000
  F           0.46684      0.54082      0.90402  1.0000
  F           0.52706      0.06323      0.73382  1.0000
  F           0.85065      0.44377      0.06696  1.0000
  F           0.55118      0.41725      0.39797  1.0000
