data_cif

_audit_creation_method             'generated by GULP'

_symmetry_space_group_name_H-M     'P 1'
_symmetry_Int_Tables_number        1
_symmetry_cell_setting             triclinic

_cell_length_a                       12.1755
_cell_length_b                       12.1851
_cell_length_c                       29.9330
_cell_angle_alpha                   90.4745
_cell_angle_beta                    89.1983
_cell_angle_gamma                  119.9588

loop_
_atom_site_label
_atom_site_fract_x
_atom_site_fract_y
_atom_site_fract_z
_atom_site_occupancy
  Ge          0.69960      0.37570      0.03389  1.0000
  Ge          0.60911      0.30965      0.36538  1.0000
  Ge          0.67626      0.30136      0.69966  1.0000
  Ge          0.27326      0.60334      0.52467  1.0000
  Ge          0.38573      0.68220      0.85452  1.0000
  Ge          0.32558      0.71561      0.19088  1.0000
  Ge          0.34879      0.66027      0.28789  1.0000
  Si          0.31087      0.63554      0.95659  1.0000
  Ge          0.32554      0.68262      0.62192  1.0000
  Ge          0.62388      0.32156      0.79972  1.0000
  Ge          0.66830      0.35509      0.46418  1.0000
  Ge          0.68719      0.31993      0.13286  1.0000
  Ge          0.53648      0.43204      0.97097  1.0000
  Ge          0.54472      0.07895      0.30476  1.0000
  Ge          0.90752      0.46682      0.63751  1.0000
  Ge          0.43958      0.54446      0.45817  1.0000
  Ge          0.43672      0.90712      0.79055  1.0000
  Ge          0.10609      0.54996      0.12346  1.0000
  Ge          0.39884      0.48467      0.35226  1.0000
  Ge          0.08507      0.58710      0.01765  1.0000
  Ge          0.49815      0.91005      0.68562  1.0000
  Ge          0.57764      0.49328      0.86973  1.0000
  Ge          0.88783      0.40487      0.53181  1.0000
  Ge          0.50877      0.09894      0.19905  1.0000
  Si          0.30609      0.39964      0.83952  1.0000
  Si          0.59992      0.90212      0.17512  1.0000
  Si          0.08850      0.69171      0.50852  1.0000
  Si          0.69268      0.57585      0.33877  1.0000
  Ge          0.40867      0.11735      0.67145  1.0000
  Si          0.88328      0.29351      0.00706  1.0000
  Si          0.37842      0.25929      0.47001  1.0000
  Si          0.88003      0.60952      0.13638  1.0000
  Si          0.72005      0.12476      0.80499  1.0000
  Ge          0.59352      0.72077      0.97523  1.0000
  Si          0.12887      0.39898      0.63847  1.0000
  Si          0.25871      0.85483      0.30637  1.0000
  Ge          0.25250      0.35337      0.94323  1.0000
  Si          0.63401      0.88317      0.27759  1.0000
  Si          0.10610      0.74947      0.61090  1.0000
  Si          0.72828      0.63421      0.44147  1.0000
  Si          0.34542      0.10057      0.77496  1.0000
  Si          0.90775      0.26079      0.10957  1.0000
  Si          0.32267      0.20226      0.36749  1.0000
  Si          0.87750      0.66255      0.03386  1.0000
  Si          0.77848      0.11763      0.70250  1.0000
  Si          0.67399      0.77288      0.87293  1.0000
  Si          0.09182      0.32239      0.53672  1.0000
  Si          0.22355      0.89477      0.20474  1.0000
  Si          0.97027      0.12850      0.95772  1.0000
  Si          0.85570      0.83050      0.29109  1.0000
  Si          0.15313      0.02377      0.62244  1.0000
  Si          0.00095      0.85491      0.45739  1.0000
  Si          0.12800      0.15488      0.78999  1.0000
  Si          0.85480      0.98808      0.12511  1.0000
  Si          0.08862      0.93330      0.35604  1.0000
  Si          0.83927      0.89659      0.02436  1.0000
  Si          0.04810      0.15268      0.68887  1.0000
  Si          0.89061      0.04855      0.85603  1.0000
  Si          0.12888      0.09097      0.52201  1.0000
  Si          0.95459      0.85486      0.19018  1.0000
  O2          0.92707      0.00739      0.98964  1.0000
  O2          0.97164      0.90859      0.32484  1.0000
  O2          0.07278      0.05915      0.65745  1.0000
  O2          0.03786      0.97394      0.49012  1.0000
  O2          0.00856      0.08063      0.82320  1.0000
  O2          0.93028      0.94847      0.15935  1.0000
  O1          0.31454      0.53144      0.31968  1.0000
  O1          0.45240      0.77443      0.65484  1.0000
  O3          0.21636      0.66977      0.98238  1.0000
  O1          0.66023      0.43275      0.83797  1.0000
  O1          0.57357      0.24282      0.17262  1.0000
  O1          0.74654      0.32309      0.50399  1.0000
  O1          0.56086      0.33879      0.00544  1.0000
  O1          0.79043      0.44224      0.67228  1.0000
  O1          0.64059      0.20075      0.33718  1.0000
  O1          0.39979      0.63543      0.48773  1.0000
  O1          0.23684      0.59317      0.15233  1.0000
  O1          0.34953      0.77635      0.82298  1.0000
  O3          0.11682      0.22082      0.96460  1.0000
  O2          0.75803      0.88196      0.29727  1.0000
  O2          0.11047      0.87697      0.63052  1.0000
  O2          0.84987      0.76370      0.46021  1.0000
  O2          0.21622      0.09212      0.79562  1.0000
  O2          0.91616      0.13940      0.12817  1.0000
  O2          0.19212      0.08048      0.35087  1.0000
  O2          0.87727      0.78823      0.01677  1.0000
  O2          0.90055      0.10832      0.68548  1.0000
  O2          0.79627      0.89859      0.85294  1.0000
  O2          0.07564      0.18766      0.52041  1.0000
  O2          0.10509      0.91100      0.18942  1.0000
  O2          0.90737      0.85363      0.24053  1.0000
  O2          0.11987      0.04183      0.57219  1.0000
  O2          0.94103      0.08669      0.90611  1.0000
  O2          0.08031      0.14022      0.73960  1.0000
  O2          0.86953      0.94844      0.07498  1.0000
  O2          0.04228      0.90319      0.40706  1.0000
  O2          0.89163      0.19851      0.97090  1.0000
  O2          0.78717      0.68143      0.30266  1.0000
  O3          0.30036      0.10973      0.63183  1.0000
  O2          0.07247      0.78106      0.47239  1.0000
  O2          0.20854      0.30353      0.80199  1.0000
  O2          0.70726      0.91897      0.13868  1.0000
  O2          0.15145      0.84867      0.34140  1.0000
  O3          0.69215      0.83580      0.01417  1.0000
  O2          0.13216      0.29893      0.67364  1.0000
  O2          0.81757      0.12197      0.84133  1.0000
  O2          0.27484      0.16027      0.50582  1.0000
  O2          0.88197      0.71186      0.17207  1.0000
  O1          0.30747      0.61150      0.23440  1.0000
  O1          0.37606      0.69086      0.56840  1.0000
  O3          0.30460      0.65970      0.90416  1.0000
  O1          0.66784      0.38124      0.74686  1.0000
  O1          0.61707      0.29407      0.08237  1.0000
  O1          0.69254      0.30956      0.41305  1.0000
  O1          0.37248      0.33469      0.95982  1.0000
  O3          0.63940      0.00862      0.29422  1.0000
  O3          0.97815      0.63088      0.62669  1.0000
  O3          0.60511      0.64224      0.45160  1.0000
  O3          0.33421      0.96517      0.78230  1.0000
  O3          0.03884      0.38442      0.11851  1.0000
  O3          0.32260      0.32162      0.34510  1.0000
  O3          0.00004      0.66521      0.01129  1.0000
  O3          0.66144      0.99797      0.67900  1.0000
  O3          0.67985      0.65412      0.85370  1.0000
  O3          0.96722      0.32248      0.51980  1.0000
  O3          0.34808      0.01947      0.18679  1.0000
  O3          0.75476      0.29267      0.99874  1.0000
  O3          0.69212      0.44663      0.32984  1.0000
  O1          0.54827      0.25236      0.66201  1.0000
  O3          0.20887      0.68214      0.49310  1.0000
  O3          0.32760      0.53832      0.82732  1.0000
  O3          0.47175      0.78140      0.15982  1.0000
  O3          0.25074      0.72009      0.30672  1.0000
  O3          0.45454      0.72754      0.97260  1.0000
  O3          0.26459      0.52452      0.63943  1.0000
  O3          0.72418      0.25558      0.80949  1.0000
  O3          0.50581      0.25505      0.47694  1.0000
  O3          0.74927      0.48217      0.14481  1.0000
  O3          0.75090      0.54132      0.01831  1.0000
  O3          0.44228      0.19293      0.35119  1.0000
  O3          0.79005      0.24708      0.68707  1.0000
  O3          0.21559      0.43541      0.51453  1.0000
  O3          0.54925      0.77440      0.85571  1.0000
  O3          0.21434      0.77190      0.18228  1.0000
  O3          0.51060      0.76040      0.29670  1.0000
  O3          0.26317      0.48889      0.96696  1.0000
  O3          0.22533      0.74510      0.63087  1.0000
  O3          0.46425      0.20188      0.80252  1.0000
  O3          0.72257      0.51724      0.46758  1.0000
  O3          0.79621      0.26699      0.13643  1.0000
  O3          0.22906      0.34754      0.88614  1.0000
  O2          0.64633      0.87988      0.22339  1.0000
  O2          0.11285      0.76338      0.55669  1.0000
  O2          0.75189      0.63159      0.38793  1.0000
  O3          0.34355      0.12801      0.72268  1.0000
  O2          0.88180      0.23595      0.05634  1.0000
  O2          0.31247      0.20634      0.42198  1.0000
  O2          0.89184      0.67452      0.08819  1.0000
  O2          0.76981      0.10312      0.75685  1.0000
  O3          0.68281      0.78102      0.92675  1.0000
  O2          0.09699      0.32328      0.59126  1.0000
  O2          0.21870      0.88924      0.25927  1.0000
  O1          0.55752      0.57528      0.99253  1.0000
  O3          0.39758      0.95695      0.32276  1.0000
  O3          0.02747      0.43835      0.65432  1.0000
  O3          0.41000      0.40079      0.48058  1.0000
  O3          0.57776      0.01225      0.81575  1.0000
  O3          0.99211      0.58110      0.14598  1.0000
  O3          0.55397      0.55941      0.33239  1.0000
  O3          0.00637      0.43181      0.99914  1.0000
  O1          0.42070      0.98315      0.66447  1.0000
  O3          0.43703      0.40041      0.83697  1.0000
  O3          0.96063      0.55543      0.50840  1.0000
  O3          0.58933      0.02883      0.17479  1.0000
  O1          0.52891      0.13462      0.25397  1.0000
  O1          0.84965      0.39319      0.58666  1.0000
  O1          0.61172      0.45040      0.92040  1.0000
  O1          0.46046      0.85785      0.73964  1.0000
  O1          0.14462      0.60957      0.06987  1.0000
  O1          0.37796      0.52110      0.40534  1.0000
  F           0.40803      0.85158      0.23192  1.0000
  F           0.13610      0.55066      0.56525  1.0000
  F           0.47417      0.54997      0.90219  1.0000
  F           0.57832      0.14328      0.72933  1.0000
  F           0.85169      0.44409      0.06556  1.0000
  F           0.54249      0.39390      0.39791  1.0000
