data_cif

_audit_creation_method             'generated by GULP'

_symmetry_space_group_name_H-M     'P 1'
_symmetry_Int_Tables_number        1
_symmetry_cell_setting             triclinic

_cell_length_a                       12.1899
_cell_length_b                       12.2021
_cell_length_c                       29.9666
_cell_angle_alpha                   90.3974
_cell_angle_beta                    88.9874
_cell_angle_gamma                  120.1392

loop_
_atom_site_label
_atom_site_fract_x
_atom_site_fract_y
_atom_site_fract_z
_atom_site_occupancy
  Ge          0.69960      0.37570      0.03389  1.0000
  Ge          0.63051      0.31875      0.37032  1.0000
  Ge          0.68560      0.29123      0.70563  1.0000
  Ge          0.29834      0.60691      0.53476  1.0000
  Ge          0.39324      0.68703      0.86633  1.0000
  Ge          0.34590      0.71484      0.20070  1.0000
  Ge          0.37507      0.67212      0.29844  1.0000
  Si          0.31969      0.63105      0.96845  1.0000
  Ge          0.33394      0.68022      0.63257  1.0000
  Ge          0.64746      0.32667      0.80491  1.0000
  Ge          0.69494      0.35752      0.46851  1.0000
  Ge          0.71631      0.32570      0.13770  1.0000
  Ge          0.52446      0.42315      0.97299  1.0000
  Ge          0.57170      0.09107      0.30804  1.0000
  Ge          0.91418      0.45594      0.64114  1.0000
  Ge          0.46717      0.54911      0.46959  1.0000
  Ge          0.44919      0.91371      0.80273  1.0000
  Ge          0.13006      0.54732      0.13304  1.0000
  Ge          0.42258      0.49667      0.36367  1.0000
  Ge          0.09339      0.57514      0.03199  1.0000
  Ge          0.50409      0.90696      0.69791  1.0000
  Ge          0.58707      0.48956      0.87302  1.0000
  Ge          0.91324      0.40276      0.53521  1.0000
  Ge          0.53152      0.10078      0.20223  1.0000
  Ge          0.31063      0.40158      0.84821  1.0000
  Si          0.61975      0.90046      0.18207  1.0000
  Si          0.11354      0.69249      0.51490  1.0000
  Si          0.71507      0.58725      0.34711  1.0000
  Si          0.41749      0.10999      0.68109  1.0000
  Ge          0.90409      0.29713      0.01458  1.0000
  Si          0.40628      0.26379      0.47791  1.0000
  Si          0.90896      0.61267      0.14553  1.0000
  Si          0.73835      0.12805      0.81283  1.0000
  Ge          0.60584      0.71729      0.98323  1.0000
  Si          0.13861      0.39407      0.64603  1.0000
  Si          0.28476      0.86723      0.31310  1.0000
  Si          0.24845      0.34770      0.95130  1.0000
  Si          0.65999      0.89361      0.28458  1.0000
  Si          0.11318      0.74180      0.61754  1.0000
  Si          0.75512      0.63839      0.44979  1.0000
  Si          0.36365      0.10829      0.78371  1.0000
  Si          0.93181      0.25980      0.11721  1.0000
  Si          0.34542      0.21330      0.37574  1.0000
  Si          0.90621      0.66608      0.04380  1.0000
  Si          0.78895      0.11122      0.71030  1.0000
  Si          0.68158      0.76989      0.88049  1.0000
  Si          0.11804      0.32356      0.54399  1.0000
  Si          0.24638      0.89695      0.21118  1.0000
  Si          0.97308      0.12149      0.96412  1.0000
  Si          0.88112      0.84136      0.29866  1.0000
  Si          0.16593      0.01630      0.63120  1.0000
  Si          0.02867      0.85837      0.46516  1.0000
  Si          0.13737      0.15566      0.79627  1.0000
  Si          0.87424      0.98589      0.13230  1.0000
  Si          0.11326      0.94365      0.36384  1.0000
  Si          0.85667      0.89283      0.03178  1.0000
  Si          0.05684      0.14530      0.69551  1.0000
  Si          0.90275      0.04367      0.86268  1.0000
  Si          0.15814      0.09343      0.53010  1.0000
  Si          0.97756      0.85647      0.19775  1.0000
  O2          0.94385      0.00318      0.99623  1.0000
  O2          0.99614      0.91809      0.33275  1.0000
  O2          0.08249      0.05415      0.66323  1.0000
  O2          0.06663      0.97540      0.49884  1.0000
  O2          0.01880      0.07117      0.82940  1.0000
  O2          0.95000      0.94465      0.16558  1.0000
  O1          0.33933      0.54742      0.33278  1.0000
  O1          0.45472      0.77052      0.66784  1.0000
  O3          0.23195      0.66315      0.99677  1.0000
  O1          0.68004      0.43991      0.84209  1.0000
  O1          0.59185      0.24094      0.17307  1.0000
  O1          0.77558      0.32125      0.50575  1.0000
  O1          0.55901      0.33732      0.00924  1.0000
  O1          0.79000      0.42598      0.67332  1.0000
  O1          0.66444      0.21534      0.33960  1.0000
  O1          0.43057      0.64034      0.50050  1.0000
  O1          0.25410      0.58615      0.16540  1.0000
  O1          0.36184      0.78940      0.83739  1.0000
  O2          0.11820      0.23261      0.97288  1.0000
  O2          0.78581      0.89575      0.30381  1.0000
  O2          0.11171      0.86688      0.63671  1.0000
  O2          0.87765      0.76642      0.46886  1.0000
  O2          0.23960      0.11015      0.80343  1.0000
  O2          0.93492      0.13653      0.13724  1.0000
  O2          0.21373      0.09220      0.35955  1.0000
  O2          0.89574      0.78532      0.02596  1.0000
  O2          0.90843      0.09798      0.69260  1.0000
  O2          0.80335      0.89517      0.85959  1.0000
  O2          0.10537      0.19018      0.52822  1.0000
  O2          0.12807      0.91270      0.19560  1.0000
  O2          0.93391      0.86131      0.24819  1.0000
  O2          0.15207      0.04700      0.58042  1.0000
  O2          0.95537      0.07874      0.91261  1.0000
  O2          0.09080      0.13017      0.74560  1.0000
  O2          0.88828      0.94891      0.08174  1.0000
  O2          0.06727      0.90924      0.41488  1.0000
  O3          0.88416      0.17668      0.97719  1.0000
  O2          0.80903      0.69272      0.31079  1.0000
  O2          0.31284      0.09579      0.64504  1.0000
  O2          0.10064      0.78365      0.47863  1.0000
  O3          0.20123      0.30140      0.80852  1.0000
  O2          0.72624      0.91389      0.14579  1.0000
  O2          0.17897      0.86291      0.34839  1.0000
  O3          0.70892      0.82935      0.02186  1.0000
  O2          0.13888      0.29269      0.68129  1.0000
  O2          0.83505      0.12311      0.84885  1.0000
  O2          0.30382      0.16200      0.51355  1.0000
  O2          0.90563      0.71087      0.18181  1.0000
  O1          0.33258      0.61707      0.24584  1.0000
  O1          0.39337      0.69322      0.58011  1.0000
  O3          0.31543      0.66325      0.91642  1.0000
  O1          0.69054      0.38239      0.75162  1.0000
  O1          0.65783      0.30353      0.08500  1.0000
  O1          0.71549      0.31450      0.41655  1.0000
  O3          0.36123      0.32506      0.96539  1.0000
  O3          0.66687      0.02123      0.29912  1.0000
  O3          0.98444      0.62104      0.63172  1.0000
  O3          0.63279      0.64612      0.46182  1.0000
  O3          0.34815      0.97356      0.79504  1.0000
  O3          0.06510      0.38120      0.12575  1.0000
  O3          0.34550      0.33417      0.35480  1.0000
  O3          0.02645      0.67148      0.01989  1.0000
  O3          0.66726      0.98943      0.68986  1.0000
  O3          0.68922      0.65271      0.86065  1.0000
  O3          0.99523      0.32257      0.52479  1.0000
  O3          0.37021      0.02037      0.19167  1.0000
  O1          0.77225      0.30922      0.00385  1.0000
  O3          0.71214      0.45822      0.33591  1.0000
  O3          0.54874      0.23417      0.67034  1.0000
  O3          0.23787      0.68713      0.50203  1.0000
  O1          0.32867      0.54791      0.83692  1.0000
  O3          0.49085      0.77844      0.16851  1.0000
  O3          0.27688      0.73302      0.31561  1.0000
  O3          0.46694      0.72120      0.98308  1.0000
  O3          0.27282      0.52128      0.64925  1.0000
  O3          0.74564      0.26075      0.81715  1.0000
  O3          0.53311      0.25795      0.48272  1.0000
  O3          0.77445      0.48514      0.14972  1.0000
  O3          0.77568      0.54109      0.03121  1.0000
  O3          0.46367      0.20409      0.35761  1.0000
  O3          0.80051      0.23859      0.69239  1.0000
  O3          0.24392      0.43944      0.52378  1.0000
  O3          0.55799      0.77394      0.86449  1.0000
  O3          0.23617      0.77211      0.19059  1.0000
  O3          0.53735      0.77393      0.30599  1.0000
  O2          0.28140      0.48245      0.97295  1.0000
  O3          0.23100      0.73958      0.63949  1.0000
  O3          0.48538      0.21251      0.80878  1.0000
  O3          0.75060      0.51950      0.47400  1.0000
  O3          0.82464      0.27567      0.14426  1.0000
  O3          0.22824      0.33954      0.89843  1.0000
  O2          0.66818      0.88336      0.23058  1.0000
  O2          0.12743      0.75886      0.56354  1.0000
  O2          0.77716      0.64003      0.39600  1.0000
  O2          0.36438      0.12518      0.72993  1.0000
  O3          0.89636      0.22513      0.06567  1.0000
  O2          0.33744      0.21467      0.43025  1.0000
  O2          0.92637      0.68094      0.09765  1.0000
  O2          0.78806      0.10517      0.76487  1.0000
  O3          0.69261      0.77762      0.93411  1.0000
  O2          0.11457      0.32168      0.59853  1.0000
  O2          0.24258      0.89680      0.26571  1.0000
  O1          0.57212      0.56903      0.99732  1.0000
  O3          0.42462      0.97181      0.32760  1.0000
  O3          0.03351      0.42987      0.66016  1.0000
  O3          0.43865      0.40431      0.49049  1.0000
  O3          0.59497      0.01950      0.82475  1.0000
  O3          0.01567      0.57892      0.15641  1.0000
  O3          0.57717      0.57362      0.34278  1.0000
  O1          0.04103      0.43317      0.00189  1.0000
  O3          0.42842      0.98361      0.67716  1.0000
  O1          0.44934      0.40253      0.84059  1.0000
  O3          0.98805      0.55439      0.51245  1.0000
  O3          0.61070      0.02790      0.17955  1.0000
  O1          0.55635      0.14319      0.25649  1.0000
  O1          0.86670      0.38686      0.58941  1.0000
  O1          0.60366      0.43299      0.92411  1.0000
  O1          0.46705      0.85808      0.75210  1.0000
  O1          0.17788      0.61151      0.08081  1.0000
  O1          0.40281      0.52825      0.41744  1.0000
  F           0.43078      0.85632      0.23942  1.0000
  F           0.15497      0.54906      0.57268  1.0000
  F           0.47921      0.54481      0.90690  1.0000
  F           0.59823      0.14333      0.73949  1.0000
  F           0.93353      0.46588      0.06873  1.0000
  F           0.56731      0.40259      0.40552  1.0000
