data_cif

_audit_creation_method             'generated by GULP'

_symmetry_space_group_name_H-M     'P 1'
_symmetry_Int_Tables_number        1
_symmetry_cell_setting             triclinic

_cell_length_a                       12.1947
_cell_length_b                       12.2057
_cell_length_c                       30.0540
_cell_angle_alpha                   90.0341
_cell_angle_beta                    89.9565
_cell_angle_gamma                  120.0433

loop_
_atom_site_label
_atom_site_fract_x
_atom_site_fract_y
_atom_site_fract_z
_atom_site_occupancy
  Ge          0.69960      0.37570      0.03389  1.0000
  Ge          0.64011      0.35103      0.36391  1.0000
  Ge          0.67013      0.31441      0.69979  1.0000
  Si          0.30527      0.64212      0.53007  1.0000
  Ge          0.37153      0.66550      0.86253  1.0000
  Ge          0.33839      0.70577      0.19856  1.0000
  Ge          0.39983      0.71641      0.30341  1.0000
  Ge          0.31114      0.61786      0.96739  1.0000
  Ge          0.30819      0.71050      0.63277  1.0000
  Ge          0.60621      0.29737      0.80470  1.0000
  Ge          0.69887      0.40304      0.46859  1.0000
  Si          0.70422      0.31134      0.13553  1.0000
  Ge          0.51877      0.41533      0.97114  1.0000
  Ge          0.59588      0.13088      0.29830  1.0000
  Ge          0.88784      0.49032      0.63474  1.0000
  Ge          0.48269      0.60014      0.46891  1.0000
  Ge          0.41305      0.88305      0.79569  1.0000
  Ge          0.12132      0.52700      0.13347  1.0000
  Ge          0.44591      0.54135      0.36988  1.0000
  Ge          0.09276      0.57253      0.03421  1.0000
  Ge          0.48656      0.93122      0.69780  1.0000
  Ge          0.56226      0.47250      0.87218  1.0000
  Ge          0.91331      0.44395      0.53640  1.0000
  Ge          0.53016      0.09124      0.19979  1.0000
  Si          0.28970      0.38228      0.84678  1.0000
  Si          0.61970      0.90637      0.17947  1.0000
  Ge          0.10351      0.72047      0.51278  1.0000
  Si          0.71982      0.63314      0.34666  1.0000
  Si          0.38994      0.11143      0.67864  1.0000
  Ge          0.90196      0.29446      0.01239  1.0000
  Si          0.40956      0.31236      0.47862  1.0000
  Ge          0.90316      0.60002      0.14701  1.0000
  Si          0.69989      0.10010      0.81106  1.0000
  Si          0.59856      0.70587      0.97939  1.0000
  Ge          0.10903      0.41884      0.64691  1.0000
  Si          0.30844      0.91485      0.31133  1.0000
  Si          0.24069      0.33182      0.94917  1.0000
  Si          0.68135      0.93376      0.28157  1.0000
  Si          0.08739      0.77091      0.61536  1.0000
  Si          0.76404      0.68711      0.44938  1.0000
  Si          0.32612      0.07964      0.78071  1.0000
  Si          0.91847      0.24691      0.11519  1.0000
  Si          0.34957      0.26401      0.37706  1.0000
  Si          0.90791      0.66650      0.04485  1.0000
  Si          0.76218      0.11320      0.70949  1.0000
  Si          0.66070      0.75064      0.87772  1.0000
  Si          0.10146      0.35441      0.54475  1.0000
  Si          0.25226      0.91096      0.20944  1.0000
  Si          0.96153      0.11230      0.96040  1.0000
  Si          0.89864      0.87477      0.29497  1.0000
  Si          0.14818      0.04819      0.62795  1.0000
  Si          0.04432      0.90478      0.46083  1.0000
  Si          0.11058      0.14037      0.79483  1.0000
  Si          0.86026      0.97090      0.12872  1.0000
  Si          0.13260      0.98764      0.36051  1.0000
  Si          0.84721      0.88195      0.02775  1.0000
  Si          0.04014      0.16942      0.69523  1.0000
  Si          0.87579      0.02686      0.86029  1.0000
  Si          0.16214      0.13849      0.52712  1.0000
  Si          0.97293      0.85155      0.19509  1.0000
  O2          0.92757      0.99383      0.99276  1.0000
  O2          0.02053      0.95789      0.32580  1.0000
  O2          0.06502      0.08723      0.65861  1.0000
  O2          0.07984      0.02481      0.49280  1.0000
  O2          0.98805      0.05786      0.82549  1.0000
  O2          0.94584      0.93299      0.15868  1.0000
  O1          0.36165      0.59522      0.33701  1.0000
  O1          0.44070      0.80473      0.65975  1.0000
  O1          0.22872      0.65973      0.99985  1.0000
  O1          0.64498      0.41568      0.83980  1.0000
  O3          0.58622      0.22652      0.16440  1.0000
  O1          0.77725      0.35882      0.50197  1.0000
  O1          0.55782      0.33803      0.00971  1.0000
  O1          0.76452      0.45088      0.67095  1.0000
  O1          0.67825      0.25629      0.33320  1.0000
  O3          0.43592      0.67719      0.50607  1.0000
  O1          0.24673      0.57018      0.16869  1.0000
  O1          0.33221      0.75662      0.83026  1.0000
  O2          0.11057      0.21218      0.96759  1.0000
  O2          0.80749      0.93423      0.29967  1.0000
  O2          0.09007      0.89823      0.63375  1.0000
  O2          0.89403      0.80841      0.46740  1.0000
  O2          0.19971      0.07844      0.79903  1.0000
  O2          0.91259      0.12009      0.13550  1.0000
  O2          0.22784      0.13717      0.35830  1.0000
  O2          0.90140      0.78678      0.02496  1.0000
  O2          0.89291      0.12797      0.69069  1.0000
  O2          0.78305      0.87676      0.85872  1.0000
  O2          0.11381      0.23874      0.52345  1.0000
  O2          0.12170      0.89821      0.19088  1.0000
  O2          0.94203      0.88156      0.24419  1.0000
  O2          0.14221      0.08334      0.57680  1.0000
  O2          0.93444      0.06766      0.90933  1.0000
  O2          0.06794      0.13558      0.74414  1.0000
  O2          0.86650      0.93922      0.07719  1.0000
  O2          0.07452      0.94864      0.40970  1.0000
  O3          0.88310      0.17872      0.97364  1.0000
  O2          0.82579      0.72970      0.31137  1.0000
  O2          0.29390      0.12340      0.64388  1.0000
  O3          0.12045      0.83585      0.47427  1.0000
  O2          0.18514      0.28523      0.81131  1.0000
  O2          0.71508      0.89232      0.14488  1.0000
  O2          0.20787      0.91485      0.34748  1.0000
  O2          0.69818      0.80694      0.01551  1.0000
  O3          0.11996      0.31690      0.68592  1.0000
  O2          0.79838      0.09746      0.84748  1.0000
  O2          0.31084      0.21028      0.51470  1.0000
  O3          0.89458      0.70341      0.18582  1.0000
  O1          0.35708      0.66039      0.24981  1.0000
  O3          0.34201      0.71307      0.57657  1.0000
  O1          0.30078      0.65206      0.91235  1.0000
  O1          0.64904      0.35635      0.75141  1.0000
  O3          0.66081      0.30178      0.08435  1.0000
  O1          0.71108      0.36788      0.41383  1.0000
  O3          0.35538      0.31241      0.96393  1.0000
  O3          0.69811      0.06847      0.29329  1.0000
  O3          0.95067      0.65413      0.62706  1.0000
  O3          0.64706      0.70347      0.46421  1.0000
  O3          0.31014      0.94480      0.79162  1.0000
  O3          0.05476      0.36268      0.12762  1.0000
  O3          0.34111      0.37913      0.35637  1.0000
  O3          0.03042      0.67366      0.02307  1.0000
  O3          0.65051      0.99158      0.68638  1.0000
  O3          0.66868      0.63420      0.85806  1.0000
  O3          0.97720      0.34442      0.52383  1.0000
  O3          0.36674      0.03276      0.18712  1.0000
  O1          0.77217      0.31127      0.00321  1.0000
  O3          0.70625      0.49717      0.33727  1.0000
  O3          0.52561      0.23673      0.67199  1.0000
  O3          0.22982      0.69583      0.50199  1.0000
  O3          0.30641      0.51897      0.83621  1.0000
  O3          0.48378      0.78313      0.17140  1.0000
  O3          0.30578      0.78416      0.31644  1.0000
  O3          0.47255      0.71368      0.98077  1.0000
  O1          0.24979      0.55522      0.65003  1.0000
  O3          0.70008      0.22918      0.81744  1.0000
  O3          0.53659      0.30737      0.48088  1.0000
  O3          0.76275      0.45942      0.14962  1.0000
  O3          0.77879      0.54018      0.03115  1.0000
  O3          0.47549      0.26355      0.36120  1.0000
  O3          0.75963      0.23950      0.69589  1.0000
  O2          0.22789      0.48743      0.53163  1.0000
  O3          0.53608      0.75202      0.86084  1.0000
  O3          0.25177      0.78356      0.19495  1.0000
  O3          0.55852      0.83135      0.30768  1.0000
  O3          0.26461      0.45866      0.97308  1.0000
  O3          0.18888      0.74747      0.64091  1.0000
  O3          0.44778      0.18118      0.80753  1.0000
  O3          0.74398      0.56207      0.47348  1.0000
  O2          0.81653      0.27568      0.13913  1.0000
  O2          0.22431      0.33265      0.89563  1.0000
  O2          0.67487      0.90366      0.22880  1.0000
  O3          0.11609      0.79650      0.56304  1.0000
  O2          0.78072      0.68612      0.39585  1.0000
  O2          0.33322      0.11114      0.72805  1.0000
  O3          0.89585      0.22113      0.06292  1.0000
  O2          0.33799      0.26105      0.43117  1.0000
  O3          0.92033      0.68235      0.09818  1.0000
  O2          0.76025      0.09557      0.76338  1.0000
  O2          0.67079      0.75533      0.93190  1.0000
  O3          0.08967      0.33561      0.59780  1.0000
  O2          0.25254      0.92553      0.26344  1.0000
  O3          0.56549      0.56559      0.99261  1.0000
  O3          0.44760      0.02958      0.32201  1.0000
  O1          0.98897      0.44681      0.65958  1.0000
  O3          0.43788      0.45180      0.49127  1.0000
  O3          0.56085      0.98292      0.81996  1.0000
  O1          0.02478      0.57503      0.15902  1.0000
  O3          0.58983      0.63060      0.33816  1.0000
  O1          0.03805      0.43210      0.00233  1.0000
  O3          0.39607      0.98747      0.66761  1.0000
  O3          0.41895      0.38215      0.84001  1.0000
  O1          0.96611      0.58418      0.50408  1.0000
  O3          0.61710      0.03260      0.16914  1.0000
  O1          0.58778      0.18658      0.24744  1.0000
  O1          0.82462      0.41536      0.58545  1.0000
  O1          0.59071      0.41768      0.92231  1.0000
  O1          0.42249      0.83072      0.74430  1.0000
  O1          0.17970      0.59712      0.08320  1.0000
  O1          0.41604      0.59853      0.41931  1.0000
  F           0.47763      0.94692      0.23758  1.0000
  F           0.06113      0.54530      0.57345  1.0000
  F           0.46596      0.52915      0.90595  1.0000
  F           0.53355      0.07118      0.73668  1.0000
  F           0.94061      0.47042      0.07101  1.0000
  F           0.54177      0.48698      0.40526  1.0000
