data_cif

_audit_creation_method             'generated by GULP'

_symmetry_space_group_name_H-M     'P 1'
_symmetry_Int_Tables_number        1
_symmetry_cell_setting             triclinic

_cell_length_a                       12.1716
_cell_length_b                       12.2179
_cell_length_c                       29.9704
_cell_angle_alpha                   89.5839
_cell_angle_beta                    89.6035
_cell_angle_gamma                  119.8461

loop_
_atom_site_label
_atom_site_fract_x
_atom_site_fract_y
_atom_site_fract_z
_atom_site_occupancy
  Ge          0.69960      0.37570      0.03389  1.0000
  Ge          0.66171      0.33057      0.36506  1.0000
  Ge          0.68418      0.30223      0.69830  1.0000
  Ge          0.33698      0.64411      0.53530  1.0000
  Si          0.37775      0.71057      0.86733  1.0000
  Ge          0.33835      0.68153      0.20150  1.0000
  Ge          0.40764      0.72088      0.29953  1.0000
  Ge          0.34350      0.62539      0.96432  1.0000
  Ge          0.30019      0.67906      0.63426  1.0000
  Ge          0.63477      0.31318      0.80226  1.0000
  Ge          0.69782      0.39538      0.46335  1.0000
  Ge          0.72525      0.32927      0.13253  1.0000
  Ge          0.52398      0.42504      0.96856  1.0000
  Ge          0.61031      0.10598      0.29993  1.0000
  Ge          0.90580      0.48894      0.63250  1.0000
  Ge          0.51700      0.59927      0.46989  1.0000
  Ge          0.43801      0.93209      0.80192  1.0000
  Ge          0.11844      0.51128      0.13537  1.0000
  Ge          0.46753      0.55487      0.36395  1.0000
  Ge          0.11766      0.56699      0.02956  1.0000
  Ge          0.46726      0.88935      0.70212  1.0000
  Ge          0.58317      0.48856      0.86367  1.0000
  Ge          0.92194      0.45050      0.52639  1.0000
  Ge          0.55716      0.09788      0.19438  1.0000
  Ge          0.29435      0.42466      0.85438  1.0000
  Si          0.62484      0.87804      0.18936  1.0000
  Si          0.14391      0.73606      0.51950  1.0000
  Si          0.75470      0.61779      0.35525  1.0000
  Si          0.39782      0.10827      0.69020  1.0000
  Si          0.89384      0.28266      0.02277  1.0000
  Si          0.42736      0.30871      0.48643  1.0000
  Ge          0.91192      0.60033      0.15426  1.0000
  Si          0.71309      0.11284      0.82244  1.0000
  Si          0.61260      0.71328      0.98873  1.0000
  Si          0.10944      0.40593      0.65226  1.0000
  Si          0.32041      0.90461      0.31976  1.0000
  Si          0.23908      0.34272      0.95702  1.0000
  Si          0.69066      0.90147      0.29152  1.0000
  Ge          0.11272      0.77551      0.62249  1.0000
  Si          0.80177      0.67873      0.45768  1.0000
  Si          0.34365      0.11478      0.79170  1.0000
  Si          0.91063      0.22970      0.12485  1.0000
  Si          0.37886      0.26810      0.38375  1.0000
  Si          0.91895      0.65615      0.05080  1.0000
  Si          0.75166      0.08879      0.72007  1.0000
  Ge          0.66061      0.77103      0.88515  1.0000
  Si          0.11731      0.36085      0.55005  1.0000
  Si          0.27228      0.89985      0.21730  1.0000
  Si          0.96999      0.11301      0.97184  1.0000
  Si          0.92413      0.86747      0.30484  1.0000
  Si          0.15615      0.04731      0.63756  1.0000
  Si          0.07059      0.90939      0.47029  1.0000
  Si          0.12504      0.17691      0.80379  1.0000
  Si          0.87331      0.95978      0.13777  1.0000
  Si          0.15761      0.99580      0.36946  1.0000
  Si          0.86493      0.87498      0.03676  1.0000
  Si          0.03081      0.15748      0.70380  1.0000
  Si          0.89066      0.04542      0.87006  1.0000
  Si          0.17352      0.14143      0.53616  1.0000
  Si          0.99939      0.85373      0.20409  1.0000
  O2          0.94054      0.99329      0.00298  1.0000
  O2          0.04005      0.95816      0.33655  1.0000
  O2          0.07401      0.08580      0.66929  1.0000
  O2          0.09690      0.02368      0.50329  1.0000
  O2          0.01227      0.08936      0.83823  1.0000
  O2          0.96550      0.93376      0.16891  1.0000
  O1          0.37493      0.58931      0.33348  1.0000
  O1          0.43151      0.76758      0.66886  1.0000
  O1          0.24119      0.65792      0.99684  1.0000
  O1          0.67290      0.44750      0.83140  1.0000
  O1          0.58653      0.21963      0.16156  1.0000
  O1          0.79877      0.35994      0.49461  1.0000
  O1          0.57922      0.34179      0.99793  1.0000
  O1          0.76359      0.42258      0.66151  1.0000
  O1          0.69430      0.24486      0.32829  1.0000
  O1          0.46332      0.68057      0.50118  1.0000
  O1          0.25561      0.56206      0.16541  1.0000
  O3          0.34845      0.79803      0.83777  1.0000
  O2          0.11918      0.21064      0.97494  1.0000
  O2          0.82359      0.91570      0.30833  1.0000
  O3          0.09009      0.89875      0.64028  1.0000
  O2          0.92133      0.81049      0.47395  1.0000
  O2          0.22912      0.13367      0.80997  1.0000
  O2          0.92099      0.10784      0.14065  1.0000
  O2          0.25190      0.14545      0.36483  1.0000
  O2          0.92317      0.78327      0.03027  1.0000
  O2          0.87897      0.09052      0.70171  1.0000
  O3          0.79509      0.89986      0.86224  1.0000
  O2          0.11643      0.23491      0.53147  1.0000
  O2          0.14791      0.90006      0.19747  1.0000
  O2          0.97388      0.88221      0.25427  1.0000
  O2          0.15801      0.09248      0.58680  1.0000
  O2          0.93211      0.06770      0.92143  1.0000
  O2          0.07317      0.14803      0.75354  1.0000
  O2          0.88390      0.92454      0.08707  1.0000
  O2          0.10705      0.96191      0.42003  1.0000
  O2          0.89206      0.18117      0.98738  1.0000
  O2          0.85744      0.72093      0.31989  1.0000
  O2          0.30172      0.10931      0.65304  1.0000
  O2          0.14858      0.83889      0.48289  1.0000
  O3          0.18607      0.32254      0.81482  1.0000
  O2          0.72743      0.87859      0.15390  1.0000
  O2          0.22899      0.91980      0.35598  1.0000
  O2          0.71558      0.80032      0.02600  1.0000
  O2          0.09630      0.30347      0.68964  1.0000
  O2          0.81924      0.12342      0.85775  1.0000
  O2          0.32148      0.21474      0.52265  1.0000
  O3          0.91815      0.70754      0.19402  1.0000
  O1          0.32260      0.62497      0.25440  1.0000
  O1          0.39145      0.68466      0.58810  1.0000
  O3          0.34652      0.71899      0.91900  1.0000
  O1          0.70533      0.36214      0.75116  1.0000
  O1          0.63865      0.33137      0.08610  1.0000
  O1          0.70589      0.31244      0.41684  1.0000
  O3          0.36167      0.34494      0.97829  1.0000
  O3          0.68909      0.02307      0.31076  1.0000
  O1          0.98157      0.64596      0.64502  1.0000
  O3          0.67937      0.67779      0.47859  1.0000
  O3          0.33600      0.99462      0.81521  1.0000
  O3          0.03244      0.34915      0.14533  1.0000
  O3          0.37140      0.38990      0.37161  1.0000
  O3          0.04984      0.66295      0.04053  1.0000
  O3          0.63411      0.95668      0.70905  1.0000
  O1          0.68143      0.64666      0.87218  1.0000
  O3          0.98831      0.35270      0.53676  1.0000
  O3          0.39277      0.02914      0.20395  1.0000
  O3          0.75979      0.27558      0.01972  1.0000
  O3          0.76045      0.49083      0.34998  1.0000
  O3          0.52512      0.24214      0.68644  1.0000
  O3          0.27931      0.74473      0.51879  1.0000
  O3          0.28631      0.56074      0.85383  1.0000
  O3          0.49953      0.74377      0.18655  1.0000
  O3          0.32724      0.78192      0.33294  1.0000
  O3          0.47816      0.69872      0.00020  1.0000
  O3          0.22986      0.53511      0.66582  1.0000
  O3          0.70084      0.23645      0.83080  1.0000
  O3          0.55695      0.31270      0.49741  1.0000
  O1          0.77904      0.46135      0.16750  1.0000
  O3          0.80626      0.53615      0.02662  1.0000
  O3          0.49937      0.27308      0.35982  1.0000
  O3          0.73840      0.19665      0.69346  1.0000
  O3          0.23439      0.48324      0.52762  1.0000
  O3          0.52582      0.74755      0.85952  1.0000
  O3          0.27860      0.78442      0.19493  1.0000
  O3          0.57490      0.77547      0.31119  1.0000
  O3          0.22820      0.45967      0.97475  1.0000
  O1          0.24704      0.78959      0.64443  1.0000
  O3          0.47067      0.24342      0.80471  1.0000
  O3          0.81119      0.56131      0.47599  1.0000
  O3          0.78309      0.21904      0.14334  1.0000
  O3          0.23698      0.33537      0.90307  1.0000
  O2          0.69612      0.90441      0.23694  1.0000
  O3          0.11026      0.78442      0.56453  1.0000
  O2          0.80242      0.68528      0.40315  1.0000
  O2          0.32719      0.09426      0.73777  1.0000
  O2          0.91818      0.23529      0.07041  1.0000
  O2          0.37601      0.24704      0.43754  1.0000
  O3          0.89585      0.66146      0.10355  1.0000
  O2          0.77401      0.11886      0.77300  1.0000
  O3          0.66698      0.79156      0.94219  1.0000
  O2          0.13157      0.35881      0.60396  1.0000
  O2          0.25293      0.88599      0.27133  1.0000
  O3          0.60573      0.57763      0.98904  1.0000
  O3          0.45722      0.03101      0.32176  1.0000
  O3          0.97919      0.40949      0.65404  1.0000
  O3          0.44008      0.44592      0.49108  1.0000
  O3          0.58329      0.98675      0.83246  1.0000
  O1          0.04718      0.58981      0.15814  1.0000
  O3          0.61381      0.58441      0.34308  1.0000
  O3          0.99892      0.42342      0.00931  1.0000
  O3          0.43205      0.00158      0.67937  1.0000
  O1          0.44312      0.45686      0.83920  1.0000
  O3          0.04308      0.59433      0.50598  1.0000
  O3          0.58735      0.98141      0.17503  1.0000
  O1          0.62720      0.14959      0.24551  1.0000
  O1          0.86958      0.47108      0.57758  1.0000
  O1          0.55342      0.40985      0.91396  1.0000
  O1          0.40287      0.84088      0.75422  1.0000
  O1          0.16490      0.54260      0.08107  1.0000
  O1          0.48632      0.61856      0.41628  1.0000
  F           0.46598      0.86275      0.26201  1.0000
  F           0.15175      0.59795      0.59541  1.0000
  F           0.43267      0.56555      0.92879  1.0000
  F           0.53532      0.08189      0.76524  1.0000
  F           0.87664      0.42481      0.09758  1.0000
  F           0.61359      0.45725      0.42818  1.0000
