data_cif

_audit_creation_method             'generated by GULP'

_symmetry_space_group_name_H-M     'P 1'
_symmetry_Int_Tables_number        1
_symmetry_cell_setting             triclinic

_cell_length_a                       12.2100
_cell_length_b                       12.2122
_cell_length_c                       29.9290
_cell_angle_alpha                   90.3761
_cell_angle_beta                    89.9976
_cell_angle_gamma                  119.9986

loop_
_atom_site_label
_atom_site_fract_x
_atom_site_fract_y
_atom_site_fract_z
_atom_site_occupancy
  Ge          0.69960      0.37570      0.03389  1.0000
  Ge          0.61122      0.30756      0.36845  1.0000
  Ge          0.66519      0.26287      0.70412  1.0000
  Ge          0.29335      0.58899      0.53014  1.0000
  Ge          0.38039      0.65852      0.86942  1.0000
  Ge          0.31731      0.69068      0.20025  1.0000
  Ge          0.35296      0.66006      0.29881  1.0000
  Si          0.30577      0.62525      0.96704  1.0000
  Ge          0.29524      0.65300      0.63416  1.0000
  Ge          0.62647      0.29144      0.80269  1.0000
  Ge          0.68539      0.33968      0.46759  1.0000
  Ge          0.66451      0.29849      0.13143  1.0000
  Si          0.52442      0.41959      0.97169  1.0000
  Ge          0.54625      0.08006      0.30357  1.0000
  Ge          0.88274      0.43463      0.63772  1.0000
  Ge          0.46999      0.53706      0.46831  1.0000
  Ge          0.42870      0.87699      0.80496  1.0000
  Ge          0.09080      0.52633      0.13675  1.0000
  Ge          0.40848      0.48775      0.36340  1.0000
  Ge          0.08620      0.57636      0.03060  1.0000
  Ge          0.48053      0.87682      0.69910  1.0000
  Ge          0.58025      0.46983      0.86785  1.0000
  Ge          0.90427      0.39190      0.53582  1.0000
  Ge          0.49251      0.07402      0.19730  1.0000
  Si          0.29399      0.38718      0.84608  1.0000
  Si          0.58743      0.87709      0.18011  1.0000
  Ge          0.08926      0.66810      0.51321  1.0000
  Si          0.69869      0.57671      0.34572  1.0000
  Si          0.39533      0.07970      0.68146  1.0000
  Si          0.88354      0.28690      0.01341  1.0000
  Si          0.39589      0.24934      0.47741  1.0000
  Ge          0.86421      0.58918      0.14468  1.0000
  Si          0.71715      0.09735      0.81249  1.0000
  Ge          0.58845      0.70183      0.98191  1.0000
  Si          0.10309      0.36841      0.64635  1.0000
  Si          0.25997      0.85404      0.31047  1.0000
  Ge          0.24383      0.34229      0.94971  1.0000
  Si          0.63507      0.88126      0.28309  1.0000
  Si          0.07873      0.71886      0.61664  1.0000
  Si          0.75061      0.62444      0.44855  1.0000
  Si          0.34397      0.07575      0.78391  1.0000
  Si          0.88817      0.24100      0.11561  1.0000
  Si          0.32797      0.20354      0.37501  1.0000
  Si          0.88346      0.65816      0.04185  1.0000
  Si          0.76455      0.07934      0.71031  1.0000
  Ge          0.66613      0.75833      0.87780  1.0000
  Si          0.09203      0.30197      0.54460  1.0000
  Si          0.20907      0.86695      0.20797  1.0000
  Si          0.96734      0.11753      0.96541  1.0000
  Si          0.85852      0.83210      0.29809  1.0000
  Si          0.14475      0.99666      0.63083  1.0000
  Si          0.02445      0.84923      0.46293  1.0000
  Si          0.12936      0.13731      0.79654  1.0000
  Si          0.84223      0.97003      0.13196  1.0000
  Si          0.09476      0.93625      0.36205  1.0000
  Si          0.83642      0.88264      0.03151  1.0000
  Si          0.03514      0.12417      0.69622  1.0000
  Si          0.89580      0.03026      0.86321  1.0000
  Si          0.14884      0.08176      0.52952  1.0000
  Si          0.94059      0.83716      0.19705  1.0000
  O2          0.91691      0.99795      0.99789  1.0000
  O2          0.97418      0.91086      0.33239  1.0000
  O2          0.06659      0.04014      0.66272  1.0000
  O2          0.05826      0.96406      0.49767  1.0000
  O2          0.01634      0.06947      0.83174  1.0000
  O2          0.92195      0.93607      0.16668  1.0000
  O1          0.32211      0.53970      0.33455  1.0000
  O1          0.42299      0.74055      0.66728  1.0000
  O3          0.22156      0.65930      0.99867  1.0000
  O1          0.66049      0.40596      0.84176  1.0000
  O1          0.54090      0.20646      0.16557  1.0000
  O1          0.76417      0.30206      0.50366  1.0000
  O3          0.56523      0.33875      0.99972  1.0000
  O1          0.76308      0.39834      0.67260  1.0000
  O1          0.64072      0.20614      0.33437  1.0000
  O1          0.43050      0.62272      0.50269  1.0000
  O1          0.22042      0.55931      0.16586  1.0000
  O1          0.33918      0.75390      0.83727  1.0000
  O3          0.11549      0.20792      0.97239  1.0000
  O2          0.76155      0.88436      0.30282  1.0000
  O2          0.08171      0.84623      0.63612  1.0000
  O2          0.87553      0.74771      0.46858  1.0000
  O2          0.21783      0.07539      0.80214  1.0000
  O2          0.89383      0.11938      0.13522  1.0000
  O2          0.19532      0.08421      0.35798  1.0000
  O2          0.88817      0.78566      0.02349  1.0000
  O2          0.88488      0.06716      0.69369  1.0000
  O3          0.80978      0.88188      0.85867  1.0000
  O2          0.09633      0.17838      0.52750  1.0000
  O2          0.08619      0.87302      0.19105  1.0000
  O2          0.91397      0.85513      0.24844  1.0000
  O2          0.13887      0.03357      0.57992  1.0000
  O2          0.94028      0.07079      0.91417  1.0000
  O2          0.07547      0.11476      0.74640  1.0000
  O2          0.86318      0.93466      0.08220  1.0000
  O2          0.05162      0.90297      0.41301  1.0000
  O2          0.89534      0.19520      0.97648  1.0000
  O2          0.78913      0.68361      0.30989  1.0000
  O2          0.29102      0.06796      0.64529  1.0000
  O3          0.10282      0.78178      0.47439  1.0000
  O2          0.20801      0.28676      0.80709  1.0000
  O2          0.69417      0.89200      0.14436  1.0000
  O2          0.15804      0.85423      0.34582  1.0000
  O3          0.68788      0.80988      0.02272  1.0000
  O2          0.10690      0.27129      0.68248  1.0000
  O2          0.81568      0.09698      0.84883  1.0000
  O2          0.29423      0.15075      0.51350  1.0000
  O3          0.85311      0.69412      0.18251  1.0000
  O1          0.30707      0.59820      0.24669  1.0000
  O1          0.34511      0.66705      0.58007  1.0000
  O3          0.29263      0.65907      0.91653  1.0000
  O1          0.67015      0.35378      0.75091  1.0000
  O1          0.60706      0.28545      0.07850  1.0000
  O1          0.69733      0.29974      0.41374  1.0000
  O3          0.37356      0.32910      0.96160  1.0000
  O3          0.64088      0.00897      0.29634  1.0000
  O3          0.94721      0.59986      0.62884  1.0000
  O3          0.63103      0.63845      0.46109  1.0000
  O3          0.33248      0.94466      0.79598  1.0000
  O3          0.01945      0.36174      0.12685  1.0000
  O3          0.32801      0.32542      0.35472  1.0000
  O3          0.00193      0.65349      0.02025  1.0000
  O3          0.64239      0.95714      0.68969  1.0000
  O1          0.66179      0.62704      0.85451  1.0000
  O3          0.97007      0.29452      0.52277  1.0000
  O3          0.33005      0.98996      0.18838  1.0000
  O3          0.76256      0.29766      0.00111  1.0000
  O3          0.69211      0.44681      0.33392  1.0000
  O3          0.52537      0.20271      0.66995  1.0000
  O1          0.21974      0.65368      0.50064  1.0000
  O3          0.30619      0.52002      0.83483  1.0000
  O3          0.45964      0.75085      0.16794  1.0000
  O3          0.25588      0.72180      0.31542  1.0000
  O3          0.45204      0.71222      0.98284  1.0000
  O3          0.23806      0.49505      0.64789  1.0000
  O3          0.72711      0.23204      0.81633  1.0000
  O3          0.52105      0.24176      0.48039  1.0000
  O1          0.72133      0.45402      0.14885  1.0000
  O3          0.75403      0.54070      0.02473  1.0000
  O3          0.44365      0.19287      0.35625  1.0000
  O3          0.77557      0.20618      0.69215  1.0000
  O3          0.22081      0.42417      0.52889  1.0000
  O1          0.54274      0.77225      0.85818  1.0000
  O3          0.20242      0.74223      0.18855  1.0000
  O3          0.51486      0.76329      0.30531  1.0000
  O3          0.25337      0.47473      0.97395  1.0000
  O3          0.18919      0.70582      0.64148  1.0000
  O3          0.46432      0.18829      0.80850  1.0000
  O3          0.73357      0.50123      0.47233  1.0000
  O3          0.77246      0.24530      0.13900  1.0000
  O3          0.21855      0.33383      0.89266  1.0000
  O2          0.63975      0.86630      0.22914  1.0000
  O3          0.10371      0.74521      0.56403  1.0000
  O2          0.76649      0.62751      0.39457  1.0000
  O2          0.34371      0.09394      0.73018  1.0000
  O2          0.86685      0.21939      0.06176  1.0000
  O2          0.32289      0.20338      0.42965  1.0000
  O3          0.89496      0.67390      0.09563  1.0000
  O2          0.76410      0.07153      0.76483  1.0000
  O1          0.67892      0.76610      0.93534  1.0000
  O2          0.07947      0.29534      0.59887  1.0000
  O2          0.20911      0.87167      0.26256  1.0000
  O3          0.54274      0.54830      0.99506  1.0000
  O3          0.39992      0.96253      0.32314  1.0000
  O3          0.00035      0.40677      0.65912  1.0000
  O3          0.43062      0.39146      0.49032  1.0000
  O3          0.57512      0.99391      0.82500  1.0000
  O1          0.97622      0.55223      0.15996  1.0000
  O3          0.56105      0.56506      0.34234  1.0000
  O3          0.01130      0.42201      0.01077  1.0000
  O3          0.40439      0.95256      0.67742  1.0000
  O3          0.42801      0.39135      0.84593  1.0000
  O1          0.95229      0.53045      0.50393  1.0000
  O3          0.57113      0.99966      0.17596  1.0000
  O1          0.52609      0.12457      0.25105  1.0000
  O1          0.82843      0.36469      0.58664  1.0000
  O3          0.59674      0.45772      0.92414  1.0000
  O1          0.44834      0.82799      0.75274  1.0000
  O1          0.13241      0.59696      0.08470  1.0000
  O1          0.39641      0.52079      0.41803  1.0000
  F           0.40011      0.83504      0.23727  1.0000
  F           0.06999      0.50611      0.56858  1.0000
  F           0.44647      0.57550      0.90555  1.0000
  F           0.57803      0.11669      0.73986  1.0000
  F           0.84501      0.43583      0.07326  1.0000
  F           0.55105      0.39306      0.40346  1.0000
