data_cif

_audit_creation_method             'generated by GULP'

_symmetry_space_group_name_H-M     'P 1'
_symmetry_Int_Tables_number        1
_symmetry_cell_setting             triclinic

_cell_length_a                       12.1916
_cell_length_b                       12.2169
_cell_length_c                       30.0041
_cell_angle_alpha                   90.8919
_cell_angle_beta                    88.4130
_cell_angle_gamma                  120.1793

loop_
_atom_site_label
_atom_site_fract_x
_atom_site_fract_y
_atom_site_fract_z
_atom_site_occupancy
  Ge          0.69960      0.37570      0.03389  1.0000
  Ge          0.60484      0.32767      0.37035  1.0000
  Ge          0.66062      0.27651      0.70005  1.0000
  Ge          0.29359      0.61502      0.54662  1.0000
  Si          0.35581      0.67552      0.87789  1.0000
  Ge          0.31731      0.69282      0.21429  1.0000
  Ge          0.35733      0.68362      0.31333  1.0000
  Ge          0.30207      0.60302      0.98108  1.0000
  Ge          0.29979      0.68048      0.64659  1.0000
  Ge          0.61295      0.30353      0.80450  1.0000
  Ge          0.68023      0.34939      0.46693  1.0000
  Ge          0.67690      0.30374      0.13738  1.0000
  Ge          0.52246      0.41263      0.96865  1.0000
  Ge          0.54765      0.10181      0.30500  1.0000
  Ge          0.88714      0.45362      0.63422  1.0000
  Ge          0.46314      0.55030      0.48543  1.0000
  Ge          0.40545      0.89077      0.81634  1.0000
  Ge          0.09974      0.52727      0.15055  1.0000
  Ge          0.40613      0.51355      0.37999  1.0000
  Ge          0.08197      0.56611      0.04998  1.0000
  Ge          0.46501      0.89575      0.71657  1.0000
  Ge          0.56824      0.48239      0.86949  1.0000
  Ge          0.90504      0.40175      0.52935  1.0000
  Ge          0.49057      0.07559      0.19965  1.0000
  Ge          0.28881      0.40039      0.85391  1.0000
  Si          0.58609      0.87722      0.18815  1.0000
  Ge          0.11298      0.69988      0.51727  1.0000
  Si          0.69476      0.60154      0.35554  1.0000
  Si          0.37561      0.07435      0.68841  1.0000
  Si          0.90321      0.29447      0.02271  1.0000
  Si          0.39572      0.26206      0.48539  1.0000
  Ge          0.87321      0.59358      0.15524  1.0000
  Si          0.69734      0.10483      0.82127  1.0000
  Si          0.59289      0.69640      0.98908  1.0000
  Si          0.10259      0.38759      0.65035  1.0000
  Si          0.26114      0.87652      0.31796  1.0000
  Si          0.23883      0.32317      0.95564  1.0000
  Si          0.63861      0.90328      0.29049  1.0000
  Si          0.08213      0.73981      0.62066  1.0000
  Si          0.74765      0.63568      0.45769  1.0000
  Si          0.32508      0.08624      0.79138  1.0000
  Si          0.89979      0.24466      0.12505  1.0000
  Si          0.32331      0.22732      0.38409  1.0000
  Si          0.90206      0.66471      0.05282  1.0000
  Si          0.74444      0.07536      0.71971  1.0000
  Ge          0.64725      0.75797      0.88675  1.0000
  Si          0.10977      0.32823      0.54809  1.0000
  Si          0.20770      0.86959      0.21559  1.0000
  Si          0.96094      0.10982      0.97044  1.0000
  Si          0.86059      0.85512      0.30539  1.0000
  Si          0.13520      0.01106      0.63740  1.0000
  Si          0.02140      0.86317      0.46990  1.0000
  Si          0.11107      0.15558      0.80245  1.0000
  Si          0.84089      0.96679      0.13781  1.0000
  Si          0.09209      0.95939      0.36992  1.0000
  Si          0.83814      0.87547      0.03725  1.0000
  Si          0.02352      0.13965      0.70216  1.0000
  Si          0.87268      0.03814      0.86926  1.0000
  Si          0.14665      0.09464      0.53615  1.0000
  Si          0.93946      0.84005      0.20453  1.0000
  O2          0.91471      0.98822      0.00183  1.0000
  O2          0.97645      0.93473      0.33862  1.0000
  O2          0.05392      0.05246      0.66924  1.0000
  O2          0.05398      0.97573      0.50565  1.0000
  O2          0.99192      0.07581      0.83599  1.0000
  O2          0.92142      0.93128      0.17052  1.0000
  O1          0.32466      0.57352      0.35341  1.0000
  O1          0.40599      0.75296      0.68592  1.0000
  O1          0.22293      0.64559      0.01551  1.0000
  O1          0.65488      0.43361      0.83395  1.0000
  O1          0.53971      0.20363      0.16526  1.0000
  O1          0.77224      0.31305      0.49823  1.0000
  O1          0.57032      0.33281      0.00215  1.0000
  O1          0.75185      0.40286      0.66545  1.0000
  O1          0.63764      0.23495      0.33272  1.0000
  O1          0.43731      0.64212      0.52034  1.0000
  O1          0.21716      0.55392      0.18475  1.0000
  O3          0.32059      0.77233      0.85523  1.0000
  O2          0.11297      0.19480      0.97390  1.0000
  O2          0.76741      0.91239      0.30945  1.0000
  O2          0.07244      0.85981      0.64120  1.0000
  O2          0.87423      0.75711      0.47775  1.0000
  O2          0.20699      0.10211      0.80941  1.0000
  O2          0.89553      0.11652      0.14234  1.0000
  O2          0.18931      0.10911      0.36804  1.0000
  O2          0.90018      0.78693      0.03299  1.0000
  O2          0.87283      0.07994      0.70145  1.0000
  O3          0.77525      0.89227      0.86340  1.0000
  O2          0.10300      0.19774      0.53199  1.0000
  O2          0.08483      0.87259      0.19799  1.0000
  O2          0.91456      0.87003      0.25506  1.0000
  O2          0.13280      0.05114      0.58707  1.0000
  O2          0.91918      0.06657      0.92003  1.0000
  O2          0.06599      0.13279      0.75162  1.0000
  O2          0.85551      0.93270      0.08687  1.0000
  O2          0.04143      0.91860      0.42025  1.0000
  O2          0.89664      0.19058      0.98686  1.0000
  O2          0.78614      0.70831      0.31935  1.0000
  O2          0.28022      0.08017      0.65289  1.0000
  O3          0.10814      0.80282      0.47832  1.0000
  O3          0.17792      0.30173      0.81426  1.0000
  O2          0.69309      0.88802      0.15221  1.0000
  O2          0.16062      0.88218      0.35351  1.0000
  O2          0.68883      0.79262      0.02698  1.0000
  O2          0.09493      0.28512      0.68638  1.0000
  O2          0.79887      0.11357      0.85754  1.0000
  O2          0.29384      0.15670      0.52052  1.0000
  O3          0.85323      0.69397      0.19334  1.0000
  O1          0.31228      0.61152      0.26297  1.0000
  O1          0.36735      0.69995      0.59451  1.0000
  O3          0.29123      0.64145      0.92612  1.0000
  O1          0.64982      0.34163      0.74901  1.0000
  O1          0.63802      0.29695      0.08284  1.0000
  O1          0.68985      0.30927      0.41332  1.0000
  O3          0.35890      0.30734      0.96432  1.0000
  O3          0.64519      0.03365      0.30016  1.0000
  O3          0.94593      0.61494      0.62754  1.0000
  O3          0.62825      0.64354      0.47448  1.0000
  O3          0.30641      0.95527      0.80939  1.0000
  O3          0.02983      0.36093      0.13941  1.0000
  O3          0.32419      0.35237      0.36782  1.0000
  O3          0.02781      0.67071      0.03370  1.0000
  O3          0.62776      0.94849      0.70191  1.0000
  O1          0.66360      0.64363      0.85957  1.0000
  O3          0.99283      0.32611      0.52368  1.0000
  O3          0.32794      0.99060      0.19313  1.0000
  O3          0.78933      0.31661      0.00891  1.0000
  O3          0.68601      0.47271      0.33949  1.0000
  O3          0.51294      0.19348      0.67586  1.0000
  O1          0.25015      0.69772      0.50916  1.0000
  O3          0.30181      0.54770      0.84830  1.0000
  O3          0.45858      0.74771      0.17992  1.0000
  O3          0.25782      0.74638      0.32650  1.0000
  O3          0.46389      0.69811      0.99328  1.0000
  O3          0.23294      0.51431      0.65612  1.0000
  O3          0.70540      0.23843      0.82036  1.0000
  O3          0.52155      0.25244      0.48557  1.0000
  O1          0.72940      0.45617      0.15526  1.0000
  O3          0.77565      0.53970      0.03583  1.0000
  O3          0.43714      0.21779      0.36107  1.0000
  O3          0.74712      0.19897      0.69997  1.0000
  O3          0.24076      0.44754      0.53351  1.0000
  O3          0.51000      0.75890      0.87475  1.0000
  O3          0.20285      0.74288      0.19980  1.0000
  O3          0.51967      0.79110      0.31654  1.0000
  O3          0.26001      0.44463      0.98352  1.0000
  O3          0.18054      0.72071      0.64850  1.0000
  O3          0.45273      0.19481      0.81261  1.0000
  O3          0.74310      0.51135      0.47652  1.0000
  O3          0.78354      0.25333      0.14810  1.0000
  O3          0.21249      0.32811      0.90379  1.0000
  O2          0.64068      0.87722      0.23726  1.0000
  O3          0.11496      0.77089      0.56863  1.0000
  O2          0.76401      0.64687      0.40354  1.0000
  O2          0.32487      0.09272      0.73740  1.0000
  O2          0.87942      0.22800      0.07145  1.0000
  O2          0.32215      0.22048      0.43848  1.0000
  O3          0.90253      0.67913      0.10649  1.0000
  O2          0.74714      0.07657      0.77403  1.0000
  O3          0.67080      0.76009      0.94336  1.0000
  O2          0.08776      0.31991      0.60217  1.0000
  O2          0.20821      0.88472      0.26989  1.0000
  O3          0.56609      0.55514      0.99627  1.0000
  O3          0.40171      0.98858      0.32761  1.0000
  O3          0.98900      0.41644      0.66029  1.0000
  O3          0.43366      0.40146      0.50181  1.0000
  O3          0.55636      0.99749      0.83600  1.0000
  O1          0.98226      0.55651      0.17186  1.0000
  O3          0.55801      0.59213      0.35607  1.0000
  O3          0.03515      0.42294      0.01853  1.0000
  O3          0.37618      0.94517      0.68295  1.0000
  O1          0.42511      0.40158      0.84011  1.0000
  O1          0.98159      0.55305      0.50855  1.0000
  O3          0.56896      0.99810      0.18045  1.0000
  O1          0.52707      0.13727      0.25178  1.0000
  O1          0.84617      0.38582      0.58281  1.0000
  O1          0.59420      0.42254      0.91816  1.0000
  O1          0.40830      0.81862      0.76786  1.0000
  O1          0.16077      0.59888      0.09983  1.0000
  O1          0.39236      0.53715      0.43497  1.0000
  F           0.40053      0.84543      0.24655  1.0000
  F           0.13190      0.55238      0.57499  1.0000
  F           0.46358      0.53099      0.91120  1.0000
  F           0.52302      0.05312      0.74756  1.0000
  F           0.92240      0.47130      0.08289  1.0000
  F           0.55110      0.41002      0.41191  1.0000
