data_cif

_audit_creation_method             'generated by GULP'

_symmetry_space_group_name_H-M     'P 1'
_symmetry_Int_Tables_number        1
_symmetry_cell_setting             triclinic

_cell_length_a                       12.2105
_cell_length_b                       12.2601
_cell_length_c                       30.0107
_cell_angle_alpha                   90.0807
_cell_angle_beta                    89.3973
_cell_angle_gamma                  120.4270

loop_
_atom_site_label
_atom_site_fract_x
_atom_site_fract_y
_atom_site_fract_z
_atom_site_occupancy
  Ge          0.69960      0.37570      0.03389  1.0000
  Ge          0.60106      0.30556      0.36898  1.0000
  Ge          0.66532      0.27065      0.70545  1.0000
  Ge          0.28055      0.59516      0.53724  1.0000
  Si          0.37410      0.67565      0.86711  1.0000
  Ge          0.33228      0.70759      0.20699  1.0000
  Ge          0.36470      0.67698      0.30620  1.0000
  Ge          0.31447      0.61761      0.97087  1.0000
  Ge          0.30978      0.66319      0.63528  1.0000
  Ge          0.63182      0.31108      0.80406  1.0000
  Ge          0.67419      0.34866      0.46724  1.0000
  Ge          0.70735      0.31825      0.13788  1.0000
  Ge          0.52166      0.41873      0.97146  1.0000
  Si          0.57180      0.09571      0.30465  1.0000
  Ge          0.89098      0.43886      0.63955  1.0000
  Ge          0.45386      0.54285      0.47352  1.0000
  Ge          0.42888      0.89735      0.80602  1.0000
  Ge          0.11984      0.53603      0.13839  1.0000
  Si          0.39277      0.49655      0.36956  1.0000
  Ge          0.09201      0.57160      0.03735  1.0000
  Ge          0.48040      0.88770      0.70097  1.0000
  Ge          0.57960      0.47775      0.87178  1.0000
  Ge          0.89455      0.39092      0.53345  1.0000
  Ge          0.52128      0.09289      0.20188  1.0000
  Ge          0.30213      0.39689      0.84988  1.0000
  Si          0.60460      0.88897      0.18257  1.0000
  Si          0.09786      0.68185      0.51659  1.0000
  Ge          0.68190      0.57965      0.34964  1.0000
  Si          0.39444      0.08898      0.68317  1.0000
  Ge          0.90358      0.29496      0.01642  1.0000
  Si          0.38917      0.25991      0.48391  1.0000
  Si          0.90015      0.60377      0.14869  1.0000
  Si          0.71933      0.11219      0.81449  1.0000
  Si          0.60110      0.70668      0.98485  1.0000
  Si          0.11401      0.37663      0.64666  1.0000
  Si          0.28636      0.88047      0.31559  1.0000
  Si          0.24210      0.33276      0.95221  1.0000
  Ge          0.65372      0.89621      0.28591  1.0000
  Si          0.09076      0.72608      0.61912  1.0000
  Si          0.74075      0.63282      0.45196  1.0000
  Si          0.34495      0.09267      0.78604  1.0000
  Si          0.92139      0.25027      0.11954  1.0000
  Ge          0.31776      0.21656      0.38158  1.0000
  Si          0.90758      0.66435      0.04704  1.0000
  Si          0.76660      0.09064      0.71252  1.0000
  Ge          0.66242      0.75609      0.88223  1.0000
  Si          0.09842      0.31156      0.54461  1.0000
  Si          0.23485      0.89242      0.21406  1.0000
  Si          0.96345      0.11171      0.96536  1.0000
  Si          0.86669      0.83264      0.29925  1.0000
  Si          0.14208      0.99914      0.63377  1.0000
  Si          0.01616      0.85015      0.46754  1.0000
  Si          0.12616      0.15084      0.79818  1.0000
  Si          0.85739      0.97384      0.13301  1.0000
  Si          0.10093      0.94152      0.36653  1.0000
  Si          0.84851      0.88115      0.03312  1.0000
  Si          0.03594      0.12955      0.69777  1.0000
  Si          0.88844      0.03492      0.86382  1.0000
  Si          0.14170      0.08451      0.53341  1.0000
  Si          0.96460      0.84765      0.19904  1.0000
  O2          0.92841      0.99300      0.99778  1.0000
  O2          0.98163      0.88215      0.33397  1.0000
  O2          0.06149      0.03674      0.66690  1.0000
  O2          0.05735      0.96840      0.50051  1.0000
  O2          0.00945      0.07150      0.83228  1.0000
  O2          0.93302      0.93026      0.16555  1.0000
  O3          0.31879      0.55509      0.34424  1.0000
  O1          0.42880      0.75041      0.67181  1.0000
  O1          0.22956      0.65873      0.00215  1.0000
  O1          0.66830      0.42578      0.84062  1.0000
  O1          0.57946      0.23041      0.17168  1.0000
  O1          0.75990      0.31143      0.50221  1.0000
  O1          0.55974      0.33824      0.00894  1.0000
  O1          0.76489      0.40249      0.67125  1.0000
  O3          0.64315      0.21019      0.33623  1.0000
  O1          0.41509      0.63198      0.50381  1.0000
  O1          0.23789      0.57427      0.17389  1.0000
  O3          0.34010      0.76847      0.84025  1.0000
  O2          0.11301      0.21230      0.97220  1.0000
  O3          0.79226      0.90691      0.30690  1.0000
  O2          0.08700      0.84940      0.63812  1.0000
  O2          0.86478      0.75872      0.47208  1.0000
  O2          0.22353      0.09939      0.80508  1.0000
  O2          0.91992      0.12435      0.13887  1.0000
  O3          0.17200      0.09101      0.36363  1.0000
  O2          0.90433      0.78774      0.02992  1.0000
  O2          0.88625      0.07754      0.69564  1.0000
  O3          0.79074      0.88903      0.85826  1.0000
  O2          0.08701      0.17899      0.52941  1.0000
  O2          0.11604      0.90597      0.19736  1.0000
  O2          0.92110      0.85649      0.24874  1.0000
  O2          0.12617      0.03333      0.58362  1.0000
  O2          0.93458      0.06376      0.91473  1.0000
  O2          0.07567      0.12338      0.74795  1.0000
  O2          0.87097      0.93949      0.08239  1.0000
  O2          0.05488      0.89847      0.41717  1.0000
  O3          0.88494      0.17751      0.97856  1.0000
  O3          0.77163      0.68543      0.30710  1.0000
  O2          0.28950      0.07593      0.64735  1.0000
  O2          0.08763      0.77533      0.48084  1.0000
  O3          0.19419      0.29727      0.80942  1.0000
  O2          0.70855      0.90243      0.14524  1.0000
  O2          0.19902      0.89393      0.35366  1.0000
  O2          0.69840      0.80339      0.02256  1.0000
  O2          0.11425      0.27500      0.68161  1.0000
  O2          0.81811      0.11246      0.85071  1.0000
  O2          0.29105      0.15913      0.52113  1.0000
  O2          0.89580      0.70078      0.18480  1.0000
  O1          0.31975      0.61623      0.25426  1.0000
  O1          0.37287      0.67923      0.58346  1.0000
  O3          0.30688      0.64982      0.91470  1.0000
  O1          0.67447      0.36479      0.75071  1.0000
  O1          0.65458      0.30085      0.08458  1.0000
  O1          0.68762      0.30326      0.41491  1.0000
  O3          0.35898      0.31383      0.96380  1.0000
  O3          0.66401      0.03728      0.29784  1.0000
  O3          0.96110      0.60414      0.63219  1.0000
  O3          0.61866      0.64061      0.46467  1.0000
  O3          0.32982      0.95977      0.80045  1.0000
  O3          0.05452      0.37054      0.13027  1.0000
  O3          0.32025      0.34764      0.35866  1.0000
  O3          0.02961      0.67130      0.02484  1.0000
  O3          0.64367      0.96815      0.69282  1.0000
  O1          0.67748      0.63812      0.85917  1.0000
  O3          0.97686      0.31113      0.52434  1.0000
  O3          0.35878      0.01396      0.19353  1.0000
  O1          0.77448      0.31116      0.00475  1.0000
  O1          0.67632      0.44282      0.33562  1.0000
  O3          0.52525      0.21286      0.67171  1.0000
  O3          0.22300      0.67792      0.50466  1.0000
  O3          0.32021      0.54506      0.83993  1.0000
  O3          0.47268      0.76582      0.17235  1.0000
  O3          0.27259      0.74506      0.32138  1.0000
  O3          0.47507      0.71458      0.98511  1.0000
  O3          0.24787      0.50404      0.65118  1.0000
  O3          0.72762      0.24466      0.81747  1.0000
  O3          0.51461      0.25030      0.48412  1.0000
  O3          0.76495      0.47601      0.15152  1.0000
  O3          0.77804      0.54084      0.03231  1.0000
  O1          0.43653      0.19882      0.36044  1.0000
  O3          0.77827      0.21680      0.69355  1.0000
  O3          0.22580      0.42865      0.52553  1.0000
  O3          0.52797      0.75889      0.86620  1.0000
  O3          0.22463      0.76598      0.19602  1.0000
  O1          0.52700      0.77367      0.31211  1.0000
  O3          0.27001      0.45964      0.97708  1.0000
  O3          0.20714      0.72241      0.64179  1.0000
  O3          0.46896      0.20043      0.80911  1.0000
  O3          0.73440      0.51044      0.47400  1.0000
  O3          0.81328      0.26601      0.14538  1.0000
  O3          0.21937      0.33244      0.89951  1.0000
  O3          0.66305      0.87680      0.22924  1.0000
  O2          0.10819      0.74506      0.56540  1.0000
  O3          0.76440      0.64178      0.39878  1.0000
  O2          0.34168      0.10124      0.73213  1.0000
  O3          0.89120      0.22119      0.06750  1.0000
  O3          0.30647      0.21025      0.43927  1.0000
  O2          0.92116      0.67406      0.10110  1.0000
  O2          0.76624      0.08546      0.76697  1.0000
  O3          0.68230      0.76417      0.93940  1.0000
  O2          0.09195      0.30695      0.59899  1.0000
  O2          0.23287      0.89750      0.26845  1.0000
  O3          0.56535      0.56450      0.99577  1.0000
  O2          0.43417      0.98338      0.32310  1.0000
  O3          0.00767      0.41059      0.65972  1.0000
  O3          0.43051      0.40249      0.49660  1.0000
  O3          0.57617      0.00306      0.82730  1.0000
  O3          0.00477      0.56793      0.16010  1.0000
  O3          0.53531      0.56984      0.34884  1.0000
  O1          0.04239      0.43130      0.00594  1.0000
  O3          0.40558      0.96350      0.67906  1.0000
  O1          0.43800      0.39463      0.84082  1.0000
  O3          0.97265      0.54405      0.51227  1.0000
  O3          0.59533      0.01619      0.17969  1.0000
  O3          0.55348      0.14057      0.25606  1.0000
  O1          0.84529      0.37367      0.58732  1.0000
  O1          0.60041      0.42519      0.92329  1.0000
  O1          0.44250      0.84164      0.75534  1.0000
  O1          0.17463      0.60266      0.08685  1.0000
  O3          0.38261      0.51426      0.42177  1.0000
  F           0.42578      0.85327      0.24282  1.0000
  F           0.13489      0.53528      0.57398  1.0000
  F           0.47361      0.53427      0.90819  1.0000
  F           0.57734      0.12485      0.74094  1.0000
  F           0.93250      0.46322      0.07162  1.0000
  F           0.54457      0.39806      0.40752  1.0000
