data_cif

_audit_creation_method             'generated by GULP'

_symmetry_space_group_name_H-M     'P 1'
_symmetry_Int_Tables_number        1
_symmetry_cell_setting             triclinic

_cell_length_a                       12.1673
_cell_length_b                       12.2126
_cell_length_c                       29.9365
_cell_angle_alpha                   89.9992
_cell_angle_beta                    89.6792
_cell_angle_gamma                  119.6890

loop_
_atom_site_label
_atom_site_fract_x
_atom_site_fract_y
_atom_site_fract_z
_atom_site_occupancy
  Ge          0.69960      0.37570      0.03389  1.0000
  Ge          0.66341      0.33331      0.36320  1.0000
  Ge          0.69111      0.33528      0.69973  1.0000
  Ge          0.34838      0.66496      0.53347  1.0000
  Ge          0.37410      0.70278      0.86947  1.0000
  Ge          0.34038      0.68284      0.20420  1.0000
  Ge          0.41435      0.72230      0.30219  1.0000
  Ge          0.33893      0.62230      0.96733  1.0000
  Ge          0.31249      0.69805      0.63264  1.0000
  Ge          0.62210      0.30676      0.79830  1.0000
  Ge          0.71065      0.40609      0.46209  1.0000
  Ge          0.72017      0.33024      0.13313  1.0000
  Ge          0.52604      0.42313      0.96665  1.0000
  Si          0.61644      0.11606      0.29890  1.0000
  Ge          0.91545      0.50652      0.63217  1.0000
  Ge          0.52233      0.61118      0.46880  1.0000
  Ge          0.42210      0.92314      0.80322  1.0000
  Ge          0.11453      0.51193      0.13992  1.0000
  Si          0.46322      0.55156      0.36555  1.0000
  Ge          0.11550      0.56668      0.03390  1.0000
  Ge          0.47537      0.91843      0.69751  1.0000
  Si          0.58274      0.48241      0.86308  1.0000
  Ge          0.93584      0.46779      0.52593  1.0000
  Ge          0.55447      0.09951      0.19524  1.0000
  Ge          0.29741      0.41726      0.85538  1.0000
  Si          0.62369      0.88094      0.18789  1.0000
  Si          0.15403      0.75605      0.51930  1.0000
  Ge          0.74976      0.62432      0.35346  1.0000
  Si          0.40725      0.13820      0.68766  1.0000
  Si          0.89496      0.28334      0.02408  1.0000
  Ge          0.43613      0.31807      0.48688  1.0000
  Ge          0.90606      0.60124      0.15588  1.0000
  Si          0.71115      0.12399      0.82076  1.0000
  Si          0.61179      0.71014      0.98823  1.0000
  Si          0.12347      0.42627      0.65163  1.0000
  Ge          0.32827      0.91261      0.31882  1.0000
  Si          0.23996      0.33887      0.95744  1.0000
  Si          0.69342      0.91210      0.28950  1.0000
  Ge          0.12410      0.79459      0.62278  1.0000
  Si          0.80746      0.69072      0.45693  1.0000
  Si          0.34148      0.12557      0.78963  1.0000
  Si          0.90692      0.23147      0.12646  1.0000
  Si          0.38184      0.27112      0.38362  1.0000
  Si          0.91640      0.65693      0.05240  1.0000
  Si          0.75911      0.11990      0.71836  1.0000
  Ge          0.66139      0.76289      0.88462  1.0000
  Si          0.13306      0.38092      0.54938  1.0000
  Si          0.26863      0.89857      0.21631  1.0000
  Si          0.96915      0.11271      0.97100  1.0000
  Si          0.92636      0.87789      0.30260  1.0000
  Si          0.15910      0.06382      0.63768  1.0000
  Si          0.07369      0.92338      0.46991  1.0000
  Si          0.11723      0.17403      0.80271  1.0000
  Si          0.87085      0.96227      0.13659  1.0000
  Si          0.15915      0.00373      0.36910  1.0000
  Si          0.86408      0.87607      0.03574  1.0000
  Si          0.03355      0.17611      0.70234  1.0000
  Si          0.88190      0.04067      0.86922  1.0000
  Si          0.18011      0.15366      0.53675  1.0000
  Si          0.99878      0.85858      0.20271  1.0000
  O2          0.93785      0.98999      0.00045  1.0000
  O2          0.04249      0.96337      0.33526  1.0000
  O2          0.07347      0.09948      0.66873  1.0000
  O2          0.10094      0.03981      0.50214  1.0000
  O2          0.00190      0.09166      0.83630  1.0000
  O2          0.96411      0.93485      0.16636  1.0000
  O3          0.38142      0.58995      0.33686  1.0000
  O1          0.44451      0.79296      0.66673  1.0000
  O1          0.24146      0.65504      0.00216  1.0000
  O3          0.65967      0.43952      0.83299  1.0000
  O1          0.58380      0.22252      0.16343  1.0000
  O1          0.81851      0.37699      0.49175  1.0000
  O1          0.58372      0.34151      0.99535  1.0000
  O1          0.77515      0.44930      0.66109  1.0000
  O3          0.69613      0.24509      0.32583  1.0000
  O1          0.46999      0.69900      0.49718  1.0000
  O1          0.25053      0.55858      0.17001  1.0000
  O1          0.33680      0.79218      0.83573  1.0000
  O2          0.11908      0.20727      0.97462  1.0000
  O2          0.82668      0.92861      0.30722  1.0000
  O3          0.10207      0.91683      0.64242  1.0000
  O2          0.92603      0.82147      0.47505  1.0000
  O2          0.21064      0.11654      0.80651  1.0000
  O2          0.91639      0.10923      0.14201  1.0000
  O2          0.25363      0.15389      0.36271  1.0000
  O2          0.92299      0.78411      0.03119  1.0000
  O2          0.88344      0.11879      0.69827  1.0000
  O3          0.79879      0.89252      0.86336  1.0000
  O2          0.13613      0.25766      0.53001  1.0000
  O2          0.14527      0.89845      0.19467  1.0000
  O2          0.97901      0.89820      0.25210  1.0000
  O2          0.14929      0.09960      0.58673  1.0000
  O2          0.92898      0.07272      0.92014  1.0000
  O2          0.06652      0.15854      0.75246  1.0000
  O2          0.88312      0.93253      0.08521  1.0000
  O2          0.10505      0.97429      0.41945  1.0000
  O2          0.89402      0.18202      0.98858  1.0000
  O3          0.85642      0.73154      0.31452  1.0000
  O2          0.30713      0.13607      0.65133  1.0000
  O2          0.15552      0.85622      0.48244  1.0000
  O3          0.19194      0.31924      0.81472  1.0000
  O2          0.72465      0.87945      0.15212  1.0000
  O3          0.23316      0.92999      0.35896  1.0000
  O2          0.71472      0.79855      0.02550  1.0000
  O2          0.10891      0.32302      0.68884  1.0000
  O2          0.80042      0.10878      0.85767  1.0000
  O3          0.32749      0.21673      0.52653  1.0000
  O3          0.91346      0.71099      0.19516  1.0000
  O1          0.33106      0.62586      0.25676  1.0000
  O1          0.40494      0.70512      0.58629  1.0000
  O1          0.33317      0.71363      0.92313  1.0000
  O1          0.70532      0.39845      0.75154  1.0000
  O1          0.63490      0.32981      0.08561  1.0000
  O1          0.71168      0.31986      0.41497  1.0000
  O3          0.36461      0.34381      0.97791  1.0000
  O2          0.68798      0.03502      0.30704  1.0000
  O1          0.99382      0.66457      0.64407  1.0000
  O3          0.68414      0.68769      0.47810  1.0000
  O3          0.34250      0.00645      0.81149  1.0000
  O3          0.02653      0.34965      0.14851  1.0000
  O2          0.37810      0.39970      0.37533  1.0000
  O3          0.04750      0.66306      0.04292  1.0000
  O3          0.63986      0.98981      0.70597  1.0000
  O3          0.67417      0.63262      0.87213  1.0000
  O3          0.00290      0.37112      0.53676  1.0000
  O3          0.39009      0.02726      0.20315  1.0000
  O3          0.76100      0.27630      0.02017  1.0000
  O1          0.75798      0.48949      0.34686  1.0000
  O3          0.53234      0.27232      0.68352  1.0000
  O3          0.29012      0.76571      0.51799  1.0000
  O1          0.28087      0.54756      0.85236  1.0000
  O3          0.49837      0.74675      0.18574  1.0000
  O1          0.33469      0.78206      0.33472  1.0000
  O3          0.47836      0.69663      0.00078  1.0000
  O3          0.24443      0.55607      0.66495  1.0000
  O3          0.70430      0.24795      0.83165  1.0000
  O1          0.57688      0.32594      0.49738  1.0000
  O1          0.77190      0.46340      0.16795  1.0000
  O3          0.80412      0.53658      0.02791  1.0000
  O3          0.50079      0.27641      0.35888  1.0000
  O3          0.75416      0.23502      0.69492  1.0000
  O3          0.24735      0.50349      0.52650  1.0000
  O1          0.53507      0.76121      0.86014  1.0000
  O3          0.27492      0.78042      0.19586  1.0000
  O3          0.58200      0.78718      0.31057  1.0000
  O3          0.22852      0.45556      0.97556  1.0000
  O1          0.25951      0.80932      0.64426  1.0000
  O3          0.45604      0.25380      0.80741  1.0000
  O3          0.81931      0.57323      0.47357  1.0000
  O3          0.77809      0.22028      0.14374  1.0000
  O3          0.23819      0.32842      0.90354  1.0000
  O2          0.69678      0.90763      0.23525  1.0000
  O3          0.12294      0.80574      0.56471  1.0000
  O3          0.81111      0.70301      0.40295  1.0000
  O2          0.33431      0.11460      0.73520  1.0000
  O2          0.91827      0.23757      0.07206  1.0000
  O3          0.37544      0.24255      0.43614  1.0000
  O3          0.89270      0.66351      0.10498  1.0000
  O2          0.77846      0.13615      0.77220  1.0000
  O3          0.66672      0.78581      0.94174  1.0000
  O2          0.14843      0.37985      0.60338  1.0000
  O3          0.24414      0.88853      0.26966  1.0000
  O3          0.60388      0.57419      0.98841  1.0000
  O3          0.47579      0.04785      0.32022  1.0000
  O3          0.99383      0.43096      0.65276  1.0000
  O1          0.44655      0.46299      0.49208  1.0000
  O3          0.57442      0.99868      0.82462  1.0000
  O1          0.03999      0.58879      0.16155  1.0000
  O3          0.59517      0.57998      0.34216  1.0000
  O3          0.00026      0.42412      0.01160  1.0000
  O3          0.44513      0.03345      0.67584  1.0000
  O3          0.45243      0.46526      0.84208  1.0000
  O3          0.05456      0.61321      0.50646  1.0000
  O3          0.58751      0.98572      0.17461  1.0000
  O3          0.62306      0.15073      0.24743  1.0000
  O1          0.87965      0.48586      0.57685  1.0000
  O3          0.54989      0.41048      0.91097  1.0000
  O1          0.40703      0.87225      0.74969  1.0000
  O1          0.16138      0.54335      0.08556  1.0000
  O3          0.49432      0.62150      0.41343  1.0000
  F           0.45871      0.86313      0.26197  1.0000
  F           0.16667      0.61876      0.59426  1.0000
  F           0.42762      0.56925      0.92723  1.0000
  F           0.56686      0.16127      0.76172  1.0000
  F           0.87229      0.42627      0.09892  1.0000
  F           0.61801      0.46359      0.42743  1.0000
