data_cif

_audit_creation_method             'generated by GULP'

_symmetry_space_group_name_H-M     'P 1'
_symmetry_Int_Tables_number        1
_symmetry_cell_setting             triclinic

_cell_length_a                       12.2184
_cell_length_b                       12.2198
_cell_length_c                       30.0246
_cell_angle_alpha                   89.7431
_cell_angle_beta                    89.4362
_cell_angle_gamma                  120.1678

loop_
_atom_site_label
_atom_site_fract_x
_atom_site_fract_y
_atom_site_fract_z
_atom_site_occupancy
  Ge          0.69960      0.37570      0.03389  1.0000
  Ge          0.64468      0.33698      0.36783  1.0000
  Ge          0.67955      0.29306      0.70302  1.0000
  Ge          0.31354      0.62077      0.52426  1.0000
  Ge          0.38920      0.67696      0.85938  1.0000
  Ge          0.34216      0.70824      0.19177  1.0000
  Ge          0.39032      0.70332      0.29636  1.0000
  Ge          0.31766      0.62365      0.96412  1.0000
  Ge          0.31668      0.68307      0.62826  1.0000
  Ge          0.63588      0.31584      0.80253  1.0000
  Ge          0.71006      0.37837      0.46783  1.0000
  Si          0.71030      0.31397      0.13589  1.0000
  Ge          0.52370      0.42097      0.97086  1.0000
  Ge          0.59313      0.11696      0.30247  1.0000
  Ge          0.90237      0.46411      0.63746  1.0000
  Ge          0.49450      0.57405      0.46218  1.0000
  Ge          0.43938      0.90379      0.79541  1.0000
  Ge          0.12585      0.53038      0.12767  1.0000
  Ge          0.43916      0.52296      0.35787  1.0000
  Ge          0.09292      0.57506      0.02884  1.0000
  Ge          0.49796      0.91018      0.69072  1.0000
  Ge          0.58068      0.47923      0.87065  1.0000
  Ge          0.92502      0.42593      0.53585  1.0000
  Ge          0.53842      0.09040      0.20199  1.0000
  Ge          0.30688      0.39090      0.84459  1.0000
  Si          0.62681      0.90736      0.17843  1.0000
  Ge          0.10915      0.70213      0.51003  1.0000
  Ge          0.73397      0.60856      0.34267  1.0000
  Si          0.41263      0.11472      0.67697  1.0000
  Ge          0.90207      0.29595      0.00929  1.0000
  Si          0.42010      0.28788      0.47458  1.0000
  Ge          0.90959      0.60393      0.14474  1.0000
  Si          0.72694      0.11706      0.80776  1.0000
  Si          0.60266      0.71120      0.97806  1.0000
  Si          0.12436      0.39893      0.64355  1.0000
  Si          0.30140      0.89841      0.30860  1.0000
  Si          0.24656      0.33727      0.94796  1.0000
  Si          0.67594      0.91638      0.28091  1.0000
  Si          0.10005      0.74948      0.61354  1.0000
  Si          0.77782      0.66195      0.44558  1.0000
  Si          0.35382      0.09954      0.77934  1.0000
  Si          0.92384      0.24997      0.11189  1.0000
  Si          0.36063      0.24083      0.37247  1.0000
  Si          0.90815      0.66733      0.04218  1.0000
  Si          0.78118      0.11140      0.70542  1.0000
  Si          0.67473      0.75865      0.87640  1.0000
  Si          0.11067      0.33373      0.54184  1.0000
  Si          0.25869      0.91273      0.20637  1.0000
  Si          0.96869      0.11817      0.95861  1.0000
  Si          0.89985      0.86449      0.29163  1.0000
  Si          0.16324      0.02676      0.62650  1.0000
  Si          0.04837      0.88575      0.45916  1.0000
  Si          0.12893      0.14789      0.79182  1.0000
  Si          0.86797      0.97503      0.12621  1.0000
  Si          0.12846      0.97290      0.35823  1.0000
  Si          0.85021      0.88483      0.02547  1.0000
  Si          0.04991      0.14952      0.69128  1.0000
  Si          0.89456      0.03479      0.85810  1.0000
  Si          0.16928      0.11557      0.52571  1.0000
  Si          0.98223      0.85754      0.19201  1.0000
  O2          0.93128      0.99641      0.99001  1.0000
  O2          0.01545      0.94734      0.32510  1.0000
  O2          0.07980      0.06698      0.65693  1.0000
  O2          0.08384      0.00292      0.49217  1.0000
  O2          0.00831      0.06203      0.82400  1.0000
  O2          0.95557      0.93799      0.15499  1.0000
  O1          0.35192      0.57359      0.32836  1.0000
  O1          0.44674      0.77680      0.65891  1.0000
  O1          0.22929      0.66378      0.99409  1.0000
  O1          0.67067      0.42549      0.84098  1.0000
  O3          0.59767      0.23005      0.16742  1.0000
  O1          0.78343      0.33857      0.50508  1.0000
  O1          0.55912      0.34133      0.00974  1.0000
  O1          0.78414      0.43223      0.67292  1.0000
  O1          0.67654      0.22996      0.33874  1.0000
  O1          0.45056      0.65772      0.49549  1.0000
  O1          0.25436      0.57546      0.16100  1.0000
  O1          0.35506      0.77546      0.82864  1.0000
  O2          0.11571      0.21913      0.96819  1.0000
  O2          0.79798      0.91022      0.29921  1.0000
  O2          0.10500      0.87706      0.63319  1.0000
  O2          0.89937      0.78526      0.46711  1.0000
  O2          0.22839      0.09859      0.79852  1.0000
  O2          0.91966      0.12404      0.13243  1.0000
  O2          0.22895      0.12158      0.35561  1.0000
  O2          0.90070      0.78706      0.02225  1.0000
  O2          0.90110      0.09924      0.68818  1.0000
  O2          0.79951      0.88500      0.85813  1.0000
  O2          0.11399      0.20978      0.52522  1.0000
  O2          0.13117      0.90507      0.18754  1.0000
  O2          0.95109      0.89079      0.24076  1.0000
  O2          0.15702      0.05996      0.57519  1.0000
  O2          0.95030      0.07758      0.90716  1.0000
  O2          0.08451      0.12927      0.74084  1.0000
  O2          0.87142      0.94251      0.07464  1.0000
  O2          0.07452      0.93512      0.40830  1.0000
  O3          0.88602      0.18101      0.97084  1.0000
  O3          0.83776      0.71841      0.30317  1.0000
  O2          0.30889      0.10451      0.64134  1.0000
  O3          0.12597      0.81793      0.47124  1.0000
  O3          0.19514      0.29197      0.80544  1.0000
  O2          0.72396      0.89566      0.14385  1.0000
  O2          0.19757      0.89471      0.34416  1.0000
  O2          0.70085      0.81156      0.01407  1.0000
  O2          0.12735      0.29913      0.67914  1.0000
  O2          0.82223      0.10880      0.84363  1.0000
  O2          0.31612      0.18911      0.51065  1.0000
  O3          0.90445      0.70894      0.18346  1.0000
  O1          0.35285      0.65286      0.24285  1.0000
  O1          0.36558      0.69510      0.57417  1.0000
  O1          0.31163      0.65618      0.90858  1.0000
  O1          0.68033      0.37736      0.75003  1.0000
  O3          0.66160      0.30512      0.08531  1.0000
  O1          0.72783      0.33892      0.41479  1.0000
  O3          0.36175      0.31785      0.96197  1.0000
  O3          0.69011      0.04722      0.29409  1.0000
  O3          0.96937      0.63038      0.62724  1.0000
  O3          0.65533      0.67603      0.45330  1.0000
  O3          0.33798      0.96370      0.78926  1.0000
  O3          0.06031      0.36626      0.12311  1.0000
  O3          0.36160      0.36086      0.34977  1.0000
  O3          0.02995      0.67560      0.01892  1.0000
  O3          0.66075      0.99127      0.68367  1.0000
  O3          0.68267      0.64221      0.85703  1.0000
  O3          0.98757      0.32602      0.52182  1.0000
  O3          0.37734      0.03714      0.18699  1.0000
  O1          0.76931      0.30871      0.00282  1.0000
  O1          0.72683      0.46949      0.33140  1.0000
  O3          0.54355      0.23978      0.66750  1.0000
  O1          0.23876      0.68642      0.49652  1.0000
  O1          0.32658      0.53704      0.83113  1.0000
  O3          0.49086      0.78823      0.16670  1.0000
  O3          0.29350      0.76344      0.31194  1.0000
  O3          0.47796      0.72108      0.97816  1.0000
  O3          0.25964      0.52638      0.64465  1.0000
  O3          0.73371      0.24867      0.81366  1.0000
  O3          0.54378      0.27860      0.47821  1.0000
  O3          0.77028      0.46259      0.14936  1.0000
  O3          0.77913      0.54036      0.02968  1.0000
  O3          0.47779      0.22874      0.35639  1.0000
  O3          0.79286      0.23996      0.68886  1.0000
  O3          0.23869      0.45597      0.52404  1.0000
  O3          0.55411      0.76480      0.85874  1.0000
  O3          0.25651      0.78646      0.18930  1.0000
  O3          0.54980      0.80519      0.30482  1.0000
  O3          0.27273      0.46530      0.97149  1.0000
  O3          0.21232      0.73706      0.63672  1.0000
  O3          0.47432      0.20036      0.80563  1.0000
  O3          0.75322      0.53840      0.47206  1.0000
  O2          0.82295      0.27904      0.13642  1.0000
  O3          0.22534      0.33260      0.89514  1.0000
  O2          0.67288      0.89147      0.22770  1.0000
  O3          0.12398      0.77679      0.56083  1.0000
  O3          0.80998      0.66860      0.39331  1.0000
  O2          0.35764      0.12307      0.72596  1.0000
  O3          0.89985      0.22354      0.05981  1.0000
  O2          0.35097      0.24437      0.42672  1.0000
  O3          0.92286      0.68393      0.09538  1.0000
  O2          0.77816      0.09902      0.75976  1.0000
  O2          0.67797      0.75803      0.93062  1.0000
  O2          0.10257      0.32886      0.59611  1.0000
  O2          0.25138      0.91603      0.26072  1.0000
  O3          0.56531      0.56976      0.99181  1.0000
  O3          0.44060      0.00314      0.32166  1.0000
  O3          0.02175      0.43657      0.65715  1.0000
  O3          0.45477      0.43003      0.48645  1.0000
  O3          0.58404      0.00659      0.81855  1.0000
  O1          0.03221      0.57952      0.15474  1.0000
  O1          0.59066      0.60262      0.33645  1.0000
  O1          0.03584      0.43504      0.99717  1.0000
  O3          0.42314      0.98871      0.67094  1.0000
  O1          0.44391      0.38906      0.83763  1.0000
  O1          0.97201      0.56427      0.50240  1.0000
  O3          0.63003      0.03755      0.17086  1.0000
  O1          0.58805      0.17532      0.25100  1.0000
  O1          0.84801      0.39553      0.58691  1.0000
  O1          0.60179      0.42850      0.92255  1.0000
  O1          0.45805      0.85432      0.74408  1.0000
  O1          0.18221      0.59976      0.07686  1.0000
  O1          0.42234      0.55523      0.41200  1.0000
  F           0.47565      0.93529      0.23539  1.0000
  F           0.08816      0.53666      0.56609  1.0000
  F           0.46986      0.53187      0.90166  1.0000
  F           0.59032      0.14039      0.73507  1.0000
  F           0.94286      0.47210      0.06759  1.0000
  F           0.58645      0.43674      0.39916  1.0000
