data_cif

_audit_creation_method             'generated by GULP'

_symmetry_space_group_name_H-M     'P 1'
_symmetry_Int_Tables_number        1
_symmetry_cell_setting             triclinic

_cell_length_a                       12.1910
_cell_length_b                       12.1878
_cell_length_c                       29.9218
_cell_angle_alpha                   89.9471
_cell_angle_beta                    90.0390
_cell_angle_gamma                  119.9391

loop_
_atom_site_label
_atom_site_fract_x
_atom_site_fract_y
_atom_site_fract_z
_atom_site_occupancy
  Ge          0.69960      0.37570      0.03389  1.0000
  Ge          0.61466      0.29143      0.36903  1.0000
  Ge          0.69301      0.28484      0.70335  1.0000
  Ge          0.29478      0.59040      0.53391  1.0000
  Ge          0.39652      0.67045      0.86719  1.0000
  Ge          0.32444      0.69344      0.19832  1.0000
  Ge          0.35300      0.64743      0.29624  1.0000
  Si          0.31683      0.63788      0.96441  1.0000
  Ge          0.33820      0.66318      0.63205  1.0000
  Ge          0.65170      0.31020      0.80271  1.0000
  Ge          0.68304      0.33780      0.46817  1.0000
  Ge          0.68218      0.30851      0.13326  1.0000
  Si          0.52799      0.42444      0.97122  1.0000
  Ge          0.55371      0.06462      0.30565  1.0000
  Ge          0.92154      0.44723      0.64062  1.0000
  Ge          0.45861      0.53136      0.46787  1.0000
  Ge          0.45628      0.89649      0.80304  1.0000
  Ge          0.10039      0.52953      0.13268  1.0000
  Ge          0.40424      0.47505      0.36204  1.0000
  Ge          0.09495      0.58016      0.02670  1.0000
  Ge          0.50729      0.88954      0.69754  1.0000
  Ge          0.59595      0.48013      0.86810  1.0000
  Ge          0.90786      0.38987      0.53481  1.0000
  Ge          0.51166      0.08182      0.19974  1.0000
  Ge          0.30483      0.39596      0.84449  1.0000
  Si          0.59664      0.87773      0.17986  1.0000
  Si          0.11056      0.67851      0.51443  1.0000
  Ge          0.70015      0.56355      0.34535  1.0000
  Ge          0.42081      0.09896      0.67974  1.0000
  Ge          0.88362      0.28590      0.01172  1.0000
  Si          0.39608      0.24613      0.47777  1.0000
  Si          0.88014      0.59417      0.14412  1.0000
  Si          0.74375      0.11528      0.81131  1.0000
  Ge          0.59863      0.71040      0.97899  1.0000
  Si          0.14149      0.37791      0.64528  1.0000
  Si          0.26504      0.84468      0.31012  1.0000
  Ge          0.24780      0.35179      0.94962  1.0000
  Si          0.63864      0.86557      0.28241  1.0000
  Si          0.12046      0.73095      0.61698  1.0000
  Si          0.74656      0.61979      0.44877  1.0000
  Si          0.36865      0.09511      0.78302  1.0000
  Si          0.89829      0.24140      0.11467  1.0000
  Si          0.33009      0.19283      0.37535  1.0000
  Si          0.89034      0.65763      0.04185  1.0000
  Si          0.79076      0.09780      0.70868  1.0000
  Si          0.67993      0.76603      0.87664  1.0000
  Si          0.11246      0.30842      0.54291  1.0000
  Si          0.22590      0.87668      0.20797  1.0000
  Si          0.97423      0.12023      0.96386  1.0000
  Si          0.86602      0.81939      0.29587  1.0000
  Si          0.16514      0.00377      0.62884  1.0000
  Si          0.01845      0.83968      0.46393  1.0000
  Si          0.14282      0.13977      0.79537  1.0000
  Si          0.85132      0.97166      0.13123  1.0000
  Si          0.09753      0.92273      0.36226  1.0000
  Si          0.84655      0.88675      0.03050  1.0000
  Si          0.05736      0.12811      0.69475  1.0000
  Si          0.91145      0.03468      0.86235  1.0000
  Si          0.14782      0.07621      0.52817  1.0000
  Si          0.95845      0.84161      0.19530  1.0000
  O2          0.93174      0.00075      0.99683  1.0000
  O2          0.97886      0.89816      0.33149  1.0000
  O2          0.08124      0.03683      0.66230  1.0000
  O2          0.05808      0.96113      0.49545  1.0000
  O2          0.02827      0.06220      0.83028  1.0000
  O2          0.93123      0.93342      0.16437  1.0000
  O1          0.31678      0.52388      0.33130  1.0000
  O1          0.45928      0.75182      0.66779  1.0000
  O3          0.23102      0.67166      0.99521  1.0000
  O1          0.68406      0.42471      0.84153  1.0000
  O1          0.56481      0.22074      0.17059  1.0000
  O1          0.76858      0.30610      0.50575  1.0000
  O3          0.56239      0.34333      0.00237  1.0000
  O1          0.80294      0.42222      0.67429  1.0000
  O1          0.64422      0.18312      0.33980  1.0000
  O1          0.42470      0.62312      0.49921  1.0000
  O1          0.22759      0.56433      0.16323  1.0000
  O1          0.36639      0.77684      0.83689  1.0000
  O3          0.11860      0.22197      0.97457  1.0000
  O2          0.76249      0.86384      0.30224  1.0000
  O2          0.12264      0.85687      0.63660  1.0000
  O2          0.86863      0.74675      0.46955  1.0000
  O2          0.24358      0.09276      0.80412  1.0000
  O2          0.90508      0.12119      0.13643  1.0000
  O2          0.19798      0.07130      0.35954  1.0000
  O2          0.89548      0.78676      0.02543  1.0000
  O2          0.91000      0.08495      0.69140  1.0000
  O2          0.81234      0.88558      0.85934  1.0000
  O2          0.09693      0.17472      0.52610  1.0000
  O2          0.10741      0.89232      0.19154  1.0000
  O2          0.92226      0.85180      0.24601  1.0000
  O2          0.13571      0.02403      0.57812  1.0000
  O2          0.96225      0.07384      0.91258  1.0000
  O2          0.08980      0.10828      0.74503  1.0000
  O2          0.86931      0.93885      0.08090  1.0000
  O2          0.05226      0.88454      0.41297  1.0000
  O3          0.88860      0.18304      0.97190  1.0000
  O3          0.80184      0.67214      0.30553  1.0000
  O3          0.31126      0.08993      0.63991  1.0000
  O2          0.09498      0.76941      0.47834  1.0000
  O3          0.20852      0.28798      0.80370  1.0000
  O2          0.70346      0.89356      0.14396  1.0000
  O2          0.16240      0.84251      0.34564  1.0000
  O3          0.69916      0.81775      0.01905  1.0000
  O2          0.14118      0.27555      0.68069  1.0000
  O2          0.84343      0.11330      0.84707  1.0000
  O2          0.29456      0.14552      0.51342  1.0000
  O2          0.88030      0.69543      0.17973  1.0000
  O1          0.31087      0.59362      0.24323  1.0000
  O1          0.39343      0.67545      0.57923  1.0000
  O3          0.30613      0.67113      0.91365  1.0000
  O1          0.69403      0.37198      0.75058  1.0000
  O1          0.61645      0.29367      0.08178  1.0000
  O1          0.69988      0.29125      0.41648  1.0000
  O3          0.37803      0.33717      0.96046  1.0000
  O3          0.64787      0.99448      0.29664  1.0000
  O3          0.99148      0.61137      0.63085  1.0000
  O3          0.62269      0.62721      0.45805  1.0000
  O3          0.35976      0.96258      0.79129  1.0000
  O3          0.02998      0.36514      0.12339  1.0000
  O3          0.32869      0.31228      0.35345  1.0000
  O3          0.00843      0.65698      0.01868  1.0000
  O3          0.66952      0.97694      0.68792  1.0000
  O3          0.67719      0.64194      0.85699  1.0000
  O3          0.98913      0.30909      0.52447  1.0000
  O3          0.34950      0.00022      0.18967  1.0000
  O1          0.75058      0.29233      0.99959  1.0000
  O1          0.69487      0.42443      0.33358  1.0000
  O1          0.56053      0.23147      0.66751  1.0000
  O3          0.23253      0.67046      0.50103  1.0000
  O1          0.31900      0.53856      0.83148  1.0000
  O3          0.46723      0.75617      0.16587  1.0000
  O3          0.25582      0.70964      0.31264  1.0000
  O3          0.46414      0.72388      0.97957  1.0000
  O3          0.27648      0.50361      0.64832  1.0000
  O3          0.75361      0.25044      0.81508  1.0000
  O3          0.52241      0.23848      0.48228  1.0000
  O3          0.74551      0.46835      0.14838  1.0000
  O3          0.75974      0.54213      0.02549  1.0000
  O3          0.44700      0.18154      0.35798  1.0000
  O3          0.80254      0.22627      0.69135  1.0000
  O3          0.23763      0.42288      0.52249  1.0000
  O3          0.56403      0.77835      0.85799  1.0000
  O3          0.21495      0.75171      0.18712  1.0000
  O3          0.51572      0.74804      0.30382  1.0000
  O3          0.26243      0.48719      0.97326  1.0000
  O3          0.23728      0.72519      0.63895  1.0000
  O3          0.49005      0.20404      0.80859  1.0000
  O3          0.73857      0.49935      0.47381  1.0000
  O3          0.78548      0.24971      0.13919  1.0000
  O1          0.21934      0.33715      0.89337  1.0000
  O2          0.64477      0.85606      0.22828  1.0000
  O2          0.13157      0.74765      0.56288  1.0000
  O3          0.77617      0.62566      0.39614  1.0000
  O3          0.36287      0.11997      0.73039  1.0000
  O3          0.87276      0.20923      0.06219  1.0000
  O2          0.32641      0.19869      0.42982  1.0000
  O2          0.90435      0.66418      0.09615  1.0000
  O2          0.78942      0.09078      0.76330  1.0000
  O3          0.68641      0.76941      0.93075  1.0000
  O2          0.11413      0.30560      0.59756  1.0000
  O2          0.22080      0.87385      0.26257  1.0000
  O3          0.55170      0.55701      0.99272  1.0000
  O3          0.40579      0.94788      0.32429  1.0000
  O3          0.03882      0.41654      0.65934  1.0000
  O3          0.43234      0.38786      0.48990  1.0000
  O3          0.60136      0.01297      0.82394  1.0000
  O3          0.98512      0.55699      0.15593  1.0000
  O1          0.55464      0.55272      0.34000  1.0000
  O1          0.02046      0.42961      0.00504  1.0000
  O1          0.42934      0.96257      0.67578  1.0000
  O1          0.44927      0.40191      0.84337  1.0000
  O3          0.98342      0.54174      0.51255  1.0000
  O3          0.58733      0.00518      0.17790  1.0000
  O1          0.53995      0.12202      0.25443  1.0000
  O1          0.86615      0.37611      0.58935  1.0000
  O3          0.60381      0.45589      0.92413  1.0000
  O1          0.47796      0.84455      0.75201  1.0000
  O1          0.14485      0.59738      0.08050  1.0000
  O1          0.38872      0.50740      0.41611  1.0000
  F           0.40885      0.83264      0.23721  1.0000
  F           0.15474      0.53476      0.57229  1.0000
  F           0.44750      0.57276      0.90303  1.0000
  F           0.59841      0.13431      0.73731  1.0000
  F           0.85536      0.42698      0.06827  1.0000
  F           0.55901      0.38821      0.40278  1.0000
