data_cif

_audit_creation_method             'generated by GULP'

_symmetry_space_group_name_H-M     'P 1'
_symmetry_Int_Tables_number        1
_symmetry_cell_setting             triclinic

_cell_length_a                       12.2052
_cell_length_b                       12.2396
_cell_length_c                       30.0678
_cell_angle_alpha                   89.2374
_cell_angle_beta                    90.5870
_cell_angle_gamma                  120.0382

loop_
_atom_site_label
_atom_site_fract_x
_atom_site_fract_y
_atom_site_fract_z
_atom_site_occupancy
  Ge          0.69960      0.37570      0.03389  1.0000
  Ge          0.62375      0.29387      0.36768  1.0000
  Ge          0.65942      0.26812      0.70138  1.0000
  Ge          0.30108      0.61040      0.53825  1.0000
  Ge          0.38091      0.67828      0.86958  1.0000
  Ge          0.30998      0.68058      0.20199  1.0000
  Ge          0.37299      0.68432      0.30656  1.0000
  Si          0.32115      0.61606      0.97317  1.0000
  Ge          0.27135      0.64708      0.63690  1.0000
  Ge          0.61306      0.28254      0.80502  1.0000
  Ge          0.65939      0.36097      0.46651  1.0000
  Ge          0.69595      0.31028      0.13795  1.0000
  Ge          0.52058      0.41409      0.96734  1.0000
  Ge          0.56829      0.07436      0.30112  1.0000
  Ge          0.87725      0.45513      0.63576  1.0000
  Ge          0.47731      0.56125      0.47425  1.0000
  Ge          0.41980      0.89971      0.80380  1.0000
  Ge          0.08838      0.50803      0.13617  1.0000
  Ge          0.42571      0.50790      0.36965  1.0000
  Ge          0.10838      0.57417      0.03635  1.0000
  Ge          0.44507      0.85580      0.70479  1.0000
  Ge          0.57872      0.46565      0.86781  1.0000
  Ge          0.88606      0.41480      0.52978  1.0000
  Ge          0.51701      0.08695      0.20129  1.0000
  Si          0.29076      0.39249      0.85474  1.0000
  Si          0.59672      0.87812      0.19101  1.0000
  Si          0.10756      0.70116      0.52297  1.0000
  Si          0.71427      0.58302      0.35962  1.0000
  Si          0.37339      0.07302      0.69287  1.0000
  Si          0.89700      0.28627      0.02495  1.0000
  Si          0.39060      0.27138      0.49064  1.0000
  Ge          0.89894      0.59402      0.15695  1.0000
  Si          0.69388      0.08247      0.82508  1.0000
  Ge          0.60164      0.68872      0.98973  1.0000
  Si          0.08208      0.37368      0.65518  1.0000
  Ge          0.29148      0.88656      0.32442  1.0000
  Ge          0.24117      0.32918      0.95731  1.0000
  Si          0.66071      0.88888      0.29257  1.0000
  Ge          0.08305      0.74246      0.62577  1.0000
  Si          0.76216      0.64371      0.46179  1.0000
  Si          0.32182      0.07790      0.79404  1.0000
  Si          0.90444      0.23043      0.12600  1.0000
  Si          0.33965      0.22680      0.38826  1.0000
  Si          0.91250      0.65879      0.05374  1.0000
  Si          0.72960      0.05701      0.72313  1.0000
  Si          0.66548      0.74545      0.88725  1.0000
  Si          0.08314      0.32683      0.55320  1.0000
  Si          0.23805      0.89318      0.22136  1.0000
  Si          0.96129      0.10767      0.97565  1.0000
  Si          0.88177      0.83419      0.30933  1.0000
  Si          0.12845      0.01436      0.64184  1.0000
  Si          0.03045      0.87442      0.47563  1.0000
  Si          0.11092      0.14614      0.80766  1.0000
  Si          0.84514      0.95360      0.14211  1.0000
  Si          0.11400      0.95431      0.37553  1.0000
  Si          0.84461      0.87066      0.04191  1.0000
  Si          0.00891      0.12780      0.70803  1.0000
  Si          0.87836      0.02379      0.87463  1.0000
  Si          0.13904      0.10758      0.54094  1.0000
  Si          0.96128      0.83564      0.20853  1.0000
  O2          0.92128      0.99061      0.00925  1.0000
  O2          0.99646      0.92146      0.34237  1.0000
  O2          0.05218      0.05372      0.67532  1.0000
  O2          0.05868      0.98678      0.50955  1.0000
  O2          0.99959      0.06947      0.84311  1.0000
  O2          0.92650      0.92254      0.17715  1.0000
  O1          0.34048      0.54872      0.33556  1.0000
  O1          0.40579      0.73499      0.67088  1.0000
  O3          0.23213      0.65506      0.99955  1.0000
  O1          0.65595      0.42159      0.83114  1.0000
  O1          0.55668      0.20652      0.16381  1.0000
  O1          0.76183      0.32578      0.49795  1.0000
  O1          0.57886      0.33084      0.99927  1.0000
  O1          0.73691      0.38858      0.66474  1.0000
  O1          0.65923      0.21536      0.33135  1.0000
  O1          0.42527      0.64453      0.50405  1.0000
  O1          0.22725      0.55815      0.16919  1.0000
  O1          0.33949      0.76706      0.84063  1.0000
  O3          0.10934      0.19733      0.97935  1.0000
  O2          0.78372      0.88485      0.31088  1.0000
  O3          0.06047      0.86549      0.64323  1.0000
  O2          0.88136      0.77541      0.47893  1.0000
  O2          0.20216      0.08738      0.81174  1.0000
  O2          0.90000      0.10295      0.14394  1.0000
  O2          0.21635      0.10248      0.36857  1.0000
  O2          0.90289      0.77902      0.03423  1.0000
  O2          0.85698      0.05934      0.70569  1.0000
  O2          0.78945      0.87343      0.86872  1.0000
  O2          0.08291      0.20131      0.53505  1.0000
  O2          0.10978      0.88443      0.20071  1.0000
  O2          0.93563      0.85092      0.25976  1.0000
  O2          0.12674      0.06339      0.59195  1.0000
  O2          0.92288      0.05803      0.92538  1.0000
  O2          0.05307      0.12473      0.75825  1.0000
  O2          0.86279      0.91529      0.09295  1.0000
  O2          0.06474      0.93071      0.42598  1.0000
  O2          0.89407      0.18861      0.98810  1.0000
  O2          0.81224      0.68725      0.32386  1.0000
  O2          0.27518      0.07273      0.65590  1.0000
  O2          0.10876      0.80315      0.48665  1.0000
  O2          0.19100      0.29553      0.81754  1.0000
  O2          0.69660      0.88036      0.15476  1.0000
  O3          0.17867      0.87420      0.36319  1.0000
  O3          0.69861      0.79909      0.02966  1.0000
  O2          0.07250      0.27210      0.69226  1.0000
  O2          0.80207      0.09442      0.86015  1.0000
  O2          0.28569      0.17798      0.52662  1.0000
  O3          0.88108      0.69210      0.19478  1.0000
  O1          0.29785      0.63347      0.25695  1.0000
  O1          0.35974      0.65313      0.59051  1.0000
  O3          0.34780      0.68170      0.92550  1.0000
  O1          0.68140      0.32776      0.75388  1.0000
  O1          0.65070      0.34349      0.08834  1.0000
  O1          0.66536      0.27808      0.42063  1.0000
  O1          0.36103      0.31473      0.98019  1.0000
  O3          0.66751      0.01029      0.31372  1.0000
  O1          0.95322      0.61253      0.64804  1.0000
  O3          0.63998      0.64187      0.48237  1.0000
  O3          0.31546      0.95772      0.81717  1.0000
  O3          0.02479      0.34499      0.14863  1.0000
  O3          0.32474      0.34651      0.37688  1.0000
  O3          0.04921      0.67769      0.04245  1.0000
  O3          0.61216      0.92424      0.71175  1.0000
  O3          0.68255      0.62811      0.87461  1.0000
  O3          0.95360      0.31766      0.53971  1.0000
  O3          0.35498      0.02945      0.20941  1.0000
  O3          0.76311      0.27717      0.02398  1.0000
  O3          0.72156      0.45827      0.35504  1.0000
  O3          0.50012      0.20701      0.68896  1.0000
  O3          0.24294      0.71027      0.52131  1.0000
  O3          0.28535      0.51952      0.85386  1.0000
  O3          0.47175      0.74384      0.18959  1.0000
  O1          0.30794      0.75713      0.33598  1.0000
  O3          0.45292      0.66863      0.99999  1.0000
  O3          0.20329      0.50344      0.66828  1.0000
  O3          0.67974      0.20475      0.83320  1.0000
  O3          0.52136      0.27818      0.50143  1.0000
  O1          0.77098      0.44738      0.16805  1.0000
  O3          0.81456      0.53366      0.02779  1.0000
  O3          0.46230      0.24639      0.36335  1.0000
  O3          0.71453      0.16365      0.69634  1.0000
  O3          0.19887      0.44926      0.53069  1.0000
  O3          0.53896      0.72204      0.86265  1.0000
  O3          0.26709      0.79563      0.19644  1.0000
  O3          0.53804      0.76012      0.30824  1.0000
  O3          0.23916      0.46289      0.97398  1.0000
  O1          0.21829      0.75664      0.64745  1.0000
  O3          0.44861      0.20665      0.80749  1.0000
  O3          0.77317      0.52695      0.47965  1.0000
  O3          0.77413      0.22337      0.13946  1.0000
  O3          0.23404      0.31278      0.90014  1.0000
  O2          0.66930      0.90129      0.23851  1.0000
  O3          0.07821      0.75096      0.56797  1.0000
  O2          0.76235      0.65206      0.40740  1.0000
  O2          0.30470      0.05900      0.74023  1.0000
  O2          0.92291      0.23708      0.07223  1.0000
  O2          0.33900      0.20720      0.44188  1.0000
  O3          0.88640      0.65736      0.10597  1.0000
  O2          0.75242      0.08804      0.77585  1.0000
  O3          0.66620      0.76741      0.93981  1.0000
  O2          0.10017      0.32592      0.60689  1.0000
  O3          0.21264      0.86915      0.27382  1.0000
  O1          0.60605      0.55422      0.99905  1.0000
  O1          0.42926      0.02354      0.33314  1.0000
  O3          0.95235      0.37714      0.65741  1.0000
  O3          0.40104      0.40774      0.49490  1.0000
  O3          0.56544      0.95550      0.83502  1.0000
  O1          0.03729      0.59624      0.16752  1.0000
  O3          0.57200      0.54956      0.34760  1.0000
  O3          0.00477      0.42787      0.01306  1.0000
  O3          0.40749      0.96677      0.68232  1.0000
  O3          0.43210      0.42418      0.84392  1.0000
  O3          0.00641      0.55920      0.50967  1.0000
  O3          0.56023      0.98344      0.17858  1.0000
  O1          0.59269      0.15165      0.25002  1.0000
  O1          0.83773      0.43558      0.58110  1.0000
  O1          0.57357      0.39039      0.91648  1.0000
  O1          0.38364      0.80570      0.75674  1.0000
  O1          0.17065      0.56474      0.08613  1.0000
  O1          0.44244      0.57699      0.42027  1.0000
  F           0.45757      0.91372      0.26777  1.0000
  F           0.12105      0.56504      0.59820  1.0000
  F           0.46503      0.51744      0.93171  1.0000
  F           0.51280      0.04644      0.76729  1.0000
  F           0.93207      0.45948      0.10100  1.0000
  F           0.57277      0.42328      0.43273  1.0000
