data_cif

_audit_creation_method             'generated by GULP'

_symmetry_space_group_name_H-M     'P 1'
_symmetry_Int_Tables_number        1
_symmetry_cell_setting             triclinic

_cell_length_a                       12.2107
_cell_length_b                       12.2004
_cell_length_c                       29.9807
_cell_angle_alpha                   90.0236
_cell_angle_beta                    89.9175
_cell_angle_gamma                  119.9421

loop_
_atom_site_label
_atom_site_fract_x
_atom_site_fract_y
_atom_site_fract_z
_atom_site_occupancy
  Ge          0.69960      0.37570      0.03389  1.0000
  Ge          0.67876      0.34118      0.36819  1.0000
  Ge          0.71007      0.35540      0.70417  1.0000
  Ge          0.34380      0.66378      0.53135  1.0000
  Ge          0.38595      0.69684      0.86510  1.0000
  Ge          0.34945      0.69502      0.19823  1.0000
  Ge          0.41719      0.72121      0.29722  1.0000
  Ge          0.33670      0.63145      0.96415  1.0000
  Ge          0.32689      0.71183      0.63037  1.0000
  Ge          0.63476      0.30615      0.80184  1.0000
  Ge          0.71095      0.41154      0.46712  1.0000
  Ge          0.73191      0.33536      0.13263  1.0000
  Si          0.52261      0.41708      0.97112  1.0000
  Ge          0.62435      0.11528      0.30281  1.0000
  Ge          0.93397      0.52768      0.63884  1.0000
  Ge          0.51738      0.61333      0.46486  1.0000
  Ge          0.43665      0.92114      0.79861  1.0000
  Ge          0.12573      0.52297      0.13280  1.0000
  Ge          0.47952      0.55445      0.35897  1.0000
  Ge          0.11372      0.57277      0.02782  1.0000
  Ge          0.49599      0.93952      0.69292  1.0000
  Ge          0.57713      0.47363      0.86677  1.0000
  Ge          0.92924      0.46694      0.53352  1.0000
  Ge          0.56723      0.10991      0.19739  1.0000
  Si          0.29372      0.41000      0.85376  1.0000
  Si          0.63566      0.89098      0.18888  1.0000
  Si          0.14818      0.75379      0.52256  1.0000
  Si          0.76802      0.62543      0.35279  1.0000
  Si          0.42622      0.15844      0.68941  1.0000
  Si          0.89450      0.28570      0.02100  1.0000
  Si          0.43744      0.32689      0.48532  1.0000
  Ge          0.91849      0.60917      0.15355  1.0000
  Si          0.72431      0.12280      0.81935  1.0000
  Ge          0.60783      0.70740      0.98724  1.0000
  Ge          0.14221      0.44043      0.65531  1.0000
  Ge          0.32942      0.90624      0.32007  1.0000
  Ge          0.24266      0.34485      0.95702  1.0000
  Si          0.70093      0.90805      0.29123  1.0000
  Si          0.14016      0.80962      0.62463  1.0000
  Ge          0.80600      0.69479      0.45608  1.0000
  Si          0.35395      0.12459      0.79129  1.0000
  Si          0.91883      0.23961      0.12314  1.0000
  Si          0.39307      0.27165      0.38322  1.0000
  Si          0.91575      0.65881      0.05074  1.0000
  Si          0.77876      0.13738      0.71691  1.0000
  Si          0.66834      0.76115      0.88446  1.0000
  Si          0.13041      0.38181      0.55230  1.0000
  Si          0.28103      0.91034      0.21690  1.0000
  Si          0.96997      0.11214      0.97088  1.0000
  Si          0.93510      0.87414      0.30382  1.0000
  Si          0.18079      0.08074      0.63772  1.0000
  Si          0.07500      0.92857      0.47177  1.0000
  Si          0.12374      0.16265      0.80383  1.0000
  Si          0.88297      0.97111      0.13729  1.0000
  Si          0.16596      0.99798      0.37080  1.0000
  Si          0.86112      0.87660      0.03706  1.0000
  Si          0.05204      0.18404      0.70395  1.0000
  Si          0.88835      0.03416      0.86916  1.0000
  Si          0.18744      0.16567      0.53640  1.0000
  Si          0.01088      0.86603      0.20319  1.0000
  O2          0.92910      0.98919      0.00114  1.0000
  O2          0.05023      0.96293      0.33662  1.0000
  O2          0.08728      0.10694      0.66804  1.0000
  O2          0.11054      0.04757      0.50364  1.0000
  O2          0.00750      0.07497      0.83643  1.0000
  O2          0.97451      0.94528      0.16870  1.0000
  O1          0.38788      0.58232      0.32559  1.0000
  O1          0.46614      0.82098      0.65860  1.0000
  O1          0.23217      0.66573      0.99404  1.0000
  O1          0.66781      0.43292      0.83830  1.0000
  O1          0.59741      0.23053      0.16411  1.0000
  O1          0.80400      0.37395      0.50236  1.0000
  O3          0.57684      0.33974      0.99758  1.0000
  O1          0.79852      0.47997      0.66984  1.0000
  O1          0.71228      0.25220      0.33301  1.0000
  O1          0.45592      0.69467      0.49201  1.0000
  O1          0.26615      0.57670      0.16111  1.0000
  O1          0.35409      0.78114      0.82713  1.0000
  O3          0.11779      0.20181      0.97625  1.0000
  O2          0.83294      0.92008      0.30783  1.0000
  O2          0.13138      0.93198      0.64076  1.0000
  O3          0.92716      0.84017      0.47515  1.0000
  O2          0.21991      0.10912      0.80739  1.0000
  O2          0.93243      0.12001      0.13936  1.0000
  O2          0.26956      0.14573      0.36387  1.0000
  O2          0.91642      0.78241      0.02921  1.0000
  O2          0.90466      0.14040      0.69700  1.0000
  O2          0.79613      0.88373      0.86470  1.0000
  O2          0.12765      0.25621      0.53146  1.0000
  O2          0.15886      0.91302      0.19557  1.0000
  O2          0.98747      0.89539      0.25355  1.0000
  O2          0.17499      0.11787      0.58689  1.0000
  O2          0.93733      0.07163      0.91941  1.0000
  O2          0.07294      0.14789      0.75357  1.0000
  O2          0.89248      0.93313      0.08680  1.0000
  O2          0.11442      0.97551      0.42112  1.0000
  O2          0.89658      0.18669      0.98514  1.0000
  O2          0.86820      0.72541      0.31616  1.0000
  O2          0.32554      0.16064      0.65424  1.0000
  O2          0.14436      0.85040      0.48610  1.0000
  O2          0.19574      0.31068      0.81676  1.0000
  O2          0.73752      0.89264      0.15331  1.0000
  O3          0.22862      0.91423      0.35990  1.0000
  O3          0.71286      0.80166      0.02878  1.0000
  O3          0.13510      0.33164      0.69505  1.0000
  O2          0.81487      0.10747      0.85533  1.0000
  O2          0.33419      0.23796      0.52243  1.0000
  O3          0.92885      0.71899      0.19325  1.0000
  O1          0.33148      0.63435      0.25025  1.0000
  O1          0.41007      0.71048      0.58258  1.0000
  O1          0.33870      0.71626      0.91645  1.0000
  O1          0.72010      0.40738      0.75731  1.0000
  O1          0.64157      0.33153      0.08620  1.0000
  O1          0.71973      0.32705      0.42121  1.0000
  O3          0.37344      0.34774      0.98109  1.0000
  O3          0.70027      0.02872      0.31215  1.0000
  O3          0.02071      0.69055      0.64708  1.0000
  O1          0.67525      0.69346      0.47768  1.0000
  O3          0.35502      0.00130      0.80946  1.0000
  O3          0.04063      0.36100      0.14325  1.0000
  O3          0.38283      0.39124      0.36994  1.0000
  O3          0.04740      0.66808      0.04104  1.0000
  O3          0.65981      0.00895      0.70202  1.0000
  O3          0.67584      0.63778      0.87419  1.0000
  O3          0.99776      0.37192      0.54386  1.0000
  O3          0.40437      0.04248      0.20841  1.0000
  O3          0.75912      0.27559      0.01888  1.0000
  O3          0.77876      0.49988      0.35207  1.0000
  O3          0.55141      0.29368      0.68749  1.0000
  O3          0.28289      0.76367      0.51823  1.0000
  O3          0.28610      0.53677      0.85061  1.0000
  O3          0.51057      0.75633      0.18496  1.0000
  O1          0.33735      0.77429      0.33266  1.0000
  O1          0.47087      0.70570      0.99892  1.0000
  O1          0.27561      0.58014      0.66631  1.0000
  O3          0.71574      0.24374      0.83361  1.0000
  O3          0.56798      0.33699      0.49897  1.0000
  O1          0.78818      0.46965      0.16741  1.0000
  O3          0.80426      0.53620      0.02666  1.0000
  O3          0.51667      0.28033      0.36104  1.0000
  O3          0.77261      0.25524      0.69628  1.0000
  O3          0.23931      0.50206      0.52642  1.0000
  O3          0.54772      0.75353      0.86009  1.0000
  O3          0.29323      0.80053      0.19182  1.0000
  O3          0.58470      0.77980      0.30881  1.0000
  O1          0.22631      0.46633      0.97582  1.0000
  O3          0.26925      0.82177      0.64109  1.0000
  O3          0.46750      0.24915      0.81233  1.0000
  O1          0.82228      0.57549      0.47795  1.0000
  O3          0.79167      0.22712      0.14218  1.0000
  O3          0.23937      0.33157      0.89929  1.0000
  O2          0.70551      0.91511      0.23676  1.0000
  O2          0.12626      0.80219      0.57035  1.0000
  O3          0.81652      0.70629      0.39805  1.0000
  O2          0.35251      0.12745      0.73681  1.0000
  O2          0.92250      0.24146      0.06864  1.0000
  O2          0.39133      0.25575      0.43721  1.0000
  O3          0.89440      0.66655      0.10341  1.0000
  O2          0.79382      0.14479      0.77096  1.0000
  O3          0.67145      0.78637      0.93732  1.0000
  O3          0.15636      0.37779      0.60472  1.0000
  O3          0.25096      0.88609      0.26949  1.0000
  O3          0.59520      0.55972      0.99062  1.0000
  O1          0.47357      0.04260      0.32442  1.0000
  O1          0.00761      0.45105      0.66086  1.0000
  O3          0.44091      0.46037      0.48616  1.0000
  O3          0.58807      0.99554      0.82092  1.0000
  O1          0.05550      0.60179      0.15604  1.0000
  O3          0.62490      0.58082      0.33920  1.0000
  O3          0.99594      0.42752      0.00748  1.0000
  O3          0.46527      0.05678      0.67460  1.0000
  O3          0.43709      0.44922      0.84272  1.0000
  O3          0.04475      0.61086      0.51122  1.0000
  O3          0.59687      0.99421      0.17630  1.0000
  O1          0.63958      0.16087      0.24854  1.0000
  O1          0.88434      0.49326      0.58509  1.0000
  O3          0.54444      0.40535      0.91930  1.0000
  O1          0.42458      0.88213      0.74394  1.0000
  O1          0.16721      0.54962      0.07817  1.0000
  O1          0.49976      0.62935      0.40952  1.0000
  F           0.47222      0.87208      0.26316  1.0000
  F           0.17340      0.61377      0.59746  1.0000
  F           0.42655      0.56842      0.92907  1.0000
  F           0.58092      0.16797      0.76253  1.0000
  F           0.88028      0.43172      0.09663  1.0000
  F           0.63041      0.47665      0.42821  1.0000
