data_cif

_audit_creation_method             'generated by GULP'

_symmetry_space_group_name_H-M     'P 1'
_symmetry_Int_Tables_number        1
_symmetry_cell_setting             triclinic

_cell_length_a                       12.1918
_cell_length_b                       12.2156
_cell_length_c                       30.0504
_cell_angle_alpha                   90.4629
_cell_angle_beta                    89.4174
_cell_angle_gamma                  119.8275

loop_
_atom_site_label
_atom_site_fract_x
_atom_site_fract_y
_atom_site_fract_z
_atom_site_occupancy
  Ge          0.69960      0.37570      0.03389  1.0000
  Si          0.61466      0.29251      0.36363  1.0000
  Ge          0.69988      0.30380      0.69680  1.0000
  Ge          0.29552      0.60072      0.52446  1.0000
  Ge          0.38596      0.69824      0.86060  1.0000
  Ge          0.31267      0.68930      0.19078  1.0000
  Ge          0.35961      0.67128      0.29527  1.0000
  Ge          0.33699      0.62096      0.95890  1.0000
  Ge          0.30394      0.65855      0.62964  1.0000
  Ge          0.63156      0.29381      0.80122  1.0000
  Ge          0.66853      0.36232      0.46598  1.0000
  Ge          0.70471      0.31763      0.13789  1.0000
  Ge          0.51660      0.41581      0.97020  1.0000
  Ge          0.55810      0.06629      0.30189  1.0000
  Ge          0.92230      0.47629      0.63006  1.0000
  Ge          0.46760      0.55151      0.45707  1.0000
  Ge          0.43333      0.91292      0.79158  1.0000
  Ge          0.09487      0.51392      0.12477  1.0000
  Ge          0.40412      0.49479      0.35739  1.0000
  Ge          0.11410      0.57109      0.02341  1.0000
  Ge          0.47662      0.88192      0.69269  1.0000
  Ge          0.57981      0.46852      0.86533  1.0000
  Ge          0.88617      0.40626      0.53173  1.0000
  Ge          0.52433      0.09654      0.20232  1.0000
  Ge          0.29017      0.40196      0.85323  1.0000
  Si          0.60206      0.88709      0.18630  1.0000
  Si          0.09872      0.69449      0.51847  1.0000
  Ge          0.69996      0.57746      0.34814  1.0000
  Ge          0.40611      0.10358      0.68344  1.0000
  Si          0.89258      0.28476      0.01801  1.0000
  Ge          0.38052      0.27651      0.48260  1.0000
  Ge          0.91064      0.60448      0.15081  1.0000
  Si          0.70762      0.08887      0.81729  1.0000
  Si          0.60425      0.70577      0.98454  1.0000
  Si          0.10247      0.37975      0.65054  1.0000
  Ge          0.27956      0.87335      0.31718  1.0000
  Si          0.23313      0.33609      0.95595  1.0000
  Si          0.64985      0.87944      0.28786  1.0000
  Si          0.10404      0.75210      0.62038  1.0000
  Si          0.74848      0.64957      0.45091  1.0000
  Si          0.33932      0.09688      0.78596  1.0000
  Si          0.91032      0.23659      0.11942  1.0000
  Si          0.32963      0.21858      0.37966  1.0000
  Si          0.91684      0.65913      0.04761  1.0000
  Si          0.75551      0.07908      0.71488  1.0000
  Si          0.66388      0.75063      0.88248  1.0000
  Si          0.08110      0.31972      0.54824  1.0000
  Si          0.24245      0.90170      0.21492  1.0000
  Si          0.96394      0.10886      0.96946  1.0000
  Si          0.87728      0.83145      0.30160  1.0000
  Si          0.15533      0.02784      0.63509  1.0000
  Si          0.02199      0.86664      0.46915  1.0000
  Si          0.11781      0.15159      0.80250  1.0000
  Si          0.85026      0.96017      0.13489  1.0000
  Si          0.10494      0.94388      0.36837  1.0000
  Si          0.85316      0.87284      0.03429  1.0000
  Si          0.03263      0.13688      0.70162  1.0000
  Si          0.88462      0.02340      0.86843  1.0000
  Si          0.13635      0.09822      0.53552  1.0000
  Si          0.96885      0.84865      0.20169  1.0000
  O2          0.93160      0.99275      0.00214  1.0000
  O2          0.98454      0.91515      0.33783  1.0000
  O2          0.06913      0.05116      0.67091  1.0000
  O2          0.05096      0.97926      0.50362  1.0000
  O2          0.00384      0.06121      0.83604  1.0000
  O2          0.93295      0.92978      0.16864  1.0000
  O1          0.32142      0.53048      0.32037  1.0000
  O1          0.44016      0.75674      0.65796  1.0000
  O1          0.23183      0.65630      0.98820  1.0000
  O1          0.66828      0.42283      0.83453  1.0000
  O1          0.57047      0.22246      0.16763  1.0000
  O1          0.76621      0.32576      0.49505  1.0000
  O1          0.56929      0.33612      0.00256  1.0000
  O1          0.79178      0.43001      0.66660  1.0000
  O3          0.64618      0.20253      0.33648  1.0000
  O1          0.41332      0.63942      0.48885  1.0000
  O1          0.23868      0.57195      0.15514  1.0000
  O1          0.34955      0.77806      0.82501  1.0000
  O2          0.11239      0.20615      0.97435  1.0000
  O2          0.76773      0.86818      0.30690  1.0000
  O2          0.11841      0.88214      0.63998  1.0000
  O2          0.87244      0.77197      0.47103  1.0000
  O2          0.22385      0.11058      0.80717  1.0000
  O2          0.90895      0.11017      0.13590  1.0000
  O2          0.21518      0.08847      0.35893  1.0000
  O2          0.91283      0.78239      0.02815  1.0000
  O2          0.88310      0.08235      0.69666  1.0000
  O2          0.79298      0.87313      0.86475  1.0000
  O2          0.08627      0.19743      0.52926  1.0000
  O2          0.11831      0.90006      0.19421  1.0000
  O2          0.93893      0.86924      0.25251  1.0000
  O2          0.11862      0.05182      0.58628  1.0000
  O2          0.93018      0.06101      0.91890  1.0000
  O2          0.06524      0.12751      0.75239  1.0000
  O2          0.86156      0.91692      0.08521  1.0000
  O2          0.06396      0.92508      0.42010  1.0000
  O2          0.88634      0.18013      0.98252  1.0000
  O3          0.81368      0.68309      0.31031  1.0000
  O3          0.30229      0.11138      0.64461  1.0000
  O2          0.09533      0.79206      0.48231  1.0000
  O3          0.17905      0.29627      0.81471  1.0000
  O2          0.70370      0.89085      0.14970  1.0000
  O3          0.15912      0.85471      0.35455  1.0000
  O2          0.70634      0.80025      0.02055  1.0000
  O2          0.11001      0.28201      0.68544  1.0000
  O2          0.80960      0.09436      0.85317  1.0000
  O3          0.28113      0.16452      0.52175  1.0000
  O3          0.89319      0.70338      0.18949  1.0000
  O1          0.29093      0.63282      0.24454  1.0000
  O1          0.35024      0.63835      0.57842  1.0000
  O1          0.34438      0.71273      0.91382  1.0000
  O1          0.70662      0.34875      0.75198  1.0000
  O1          0.65223      0.34064      0.08796  1.0000
  O3          0.64838      0.29039      0.41528  1.0000
  O3          0.35464      0.33804      0.97802  1.0000
  O3          0.65400      0.99801      0.31215  1.0000
  O3          0.98144      0.63942      0.64242  1.0000
  O3          0.62943      0.65654      0.46949  1.0000
  O3          0.33158      0.97376      0.80639  1.0000
  O3          0.03326      0.35262      0.13968  1.0000
  O3          0.30800      0.33145      0.36468  1.0000
  O3          0.04689      0.67026      0.03358  1.0000
  O3          0.64020      0.94528      0.70124  1.0000
  O3          0.67910      0.63020      0.87233  1.0000
  O3          0.94574      0.30217      0.53749  1.0000
  O3          0.36153      0.03953      0.20741  1.0000
  O3          0.75716      0.27620      0.01787  1.0000
  O3          0.70273      0.43784      0.34725  1.0000
  O1          0.54264      0.24397      0.68139  1.0000
  O3          0.22974      0.69721      0.51309  1.0000
  O1          0.28628      0.53670      0.84739  1.0000
  O3          0.47687      0.75495      0.18151  1.0000
  O1          0.29218      0.74169      0.32634  1.0000
  O3          0.47218      0.69691      0.99447  1.0000
  O3          0.22696      0.51539      0.65799  1.0000
  O3          0.69205      0.20986      0.82793  1.0000
  O1          0.52678      0.29546      0.49410  1.0000
  O1          0.78327      0.45982      0.16488  1.0000
  O3          0.80326      0.53376      0.02501  1.0000
  O2          0.46550      0.25125      0.35880  1.0000
  O3          0.73711      0.18429      0.69054  1.0000
  O3          0.17999      0.44259      0.52150  1.0000
  O3          0.54555      0.73647      0.85607  1.0000
  O3          0.27412      0.80823      0.18717  1.0000
  O3          0.52451      0.74906      0.29944  1.0000
  O3          0.22303      0.45521      0.97172  1.0000
  O3          0.22984      0.74897      0.63424  1.0000
  O3          0.46778      0.22298      0.80075  1.0000
  O3          0.75089      0.52612      0.46811  1.0000
  O3          0.78216      0.23014      0.13677  1.0000
  O3          0.23092      0.31896      0.90244  1.0000
  O2          0.66877      0.90195      0.23428  1.0000
  O2          0.08957      0.75218      0.56639  1.0000
  O3          0.75901      0.65981      0.39740  1.0000
  O3          0.32252      0.08577      0.73252  1.0000
  O2          0.91905      0.23958      0.06525  1.0000
  O3          0.32000      0.19782      0.43239  1.0000
  O3          0.89440      0.66404      0.10025  1.0000
  O2          0.77234      0.10196      0.76830  1.0000
  O2          0.65744      0.76915      0.93578  1.0000
  O2          0.10942      0.32602      0.60113  1.0000
  O3          0.20737      0.86588      0.26635  1.0000
  O3          0.59510      0.57011      0.98942  1.0000
  O1          0.41427      0.00878      0.33104  1.0000
  O3          0.97735      0.38569      0.66041  1.0000
  O1          0.37946      0.41380      0.49003  1.0000
  O3          0.57614      0.96314      0.82308  1.0000
  O1          0.04977      0.60700      0.15831  1.0000
  O1          0.55231      0.54466      0.33419  1.0000
  O3          0.99421      0.42423      0.00369  1.0000
  O1          0.43628      0.98563      0.66867  1.0000
  O1          0.44000      0.43068      0.84020  1.0000
  O3          0.98592      0.55465      0.50850  1.0000
  O3          0.57268      0.99863      0.17680  1.0000
  O1          0.59122      0.15295      0.25297  1.0000
  O1          0.82756      0.41480      0.58240  1.0000
  O1          0.55278      0.39812      0.91661  1.0000
  O1          0.40270      0.82474      0.74237  1.0000
  O1          0.17074      0.55839      0.07377  1.0000
  O1          0.41002      0.56972      0.40645  1.0000
  F           0.45206      0.91212      0.26254  1.0000
  F           0.06685      0.52552      0.59245  1.0000
  F           0.42138      0.55287      0.92440  1.0000
  F           0.52935      0.06254      0.75608  1.0000
  F           0.93246      0.46171      0.09488  1.0000
  F           0.52450      0.44828      0.42412  1.0000
