data_cif

_audit_creation_method             'generated by GULP'

_symmetry_space_group_name_H-M     'P 1'
_symmetry_Int_Tables_number        1
_symmetry_cell_setting             triclinic

_cell_length_a                       12.2340
_cell_length_b                       12.2342
_cell_length_c                       30.1099
_cell_angle_alpha                   89.9853
_cell_angle_beta                    90.0607
_cell_angle_gamma                  120.1521

loop_
_atom_site_label
_atom_site_fract_x
_atom_site_fract_y
_atom_site_fract_z
_atom_site_occupancy
  Ge          0.69960      0.37570      0.03389  1.0000
  Ge          0.64073      0.35778      0.36773  1.0000
  Ge          0.66646      0.31288      0.70098  1.0000
  Ge          0.30674      0.65104      0.53782  1.0000
  Ge          0.36749      0.69001      0.87118  1.0000
  Ge          0.33841      0.71903      0.20263  1.0000
  Ge          0.40284      0.71969      0.30661  1.0000
  Si          0.31119      0.62073      0.97263  1.0000
  Ge          0.29652      0.70825      0.64224  1.0000
  Ge          0.61355      0.32719      0.80484  1.0000
  Ge          0.69532      0.40888      0.47265  1.0000
  Ge          0.70460      0.32270      0.13862  1.0000
  Ge          0.52656      0.42034      0.96903  1.0000
  Ge          0.60195      0.13949      0.30379  1.0000
  Ge          0.88651      0.49167      0.63606  1.0000
  Ge          0.48353      0.60835      0.47319  1.0000
  Ge          0.40807      0.91031      0.80884  1.0000
  Ge          0.11738      0.54020      0.13766  1.0000
  Ge          0.44658      0.54560      0.37447  1.0000
  Ge          0.09311      0.57519      0.03773  1.0000
  Ge          0.47183      0.92765      0.71007  1.0000
  Ge          0.56770      0.50013      0.87034  1.0000
  Ge          0.91607      0.45251      0.53700  1.0000
  Ge          0.52828      0.10460      0.20566  1.0000
  Ge          0.28874      0.40708      0.84892  1.0000
  Si          0.61888      0.92077      0.18302  1.0000
  Ge          0.10297      0.73048      0.51626  1.0000
  Si          0.72045      0.63949      0.35155  1.0000
  Si          0.38430      0.11247      0.68528  1.0000
  Si          0.90351      0.30000      0.01675  1.0000
  Si          0.40727      0.31861      0.48274  1.0000
  Si          0.90359      0.61312      0.14992  1.0000
  Ge          0.70297      0.12406      0.81720  1.0000
  Ge          0.59953      0.71140      0.98275  1.0000
  Si          0.09972      0.41899      0.65047  1.0000
  Ge          0.31005      0.92175      0.31677  1.0000
  Si          0.24603      0.34278      0.95158  1.0000
  Si          0.68263      0.94072      0.28484  1.0000
  Si          0.08083      0.77396      0.61897  1.0000
  Si          0.76357      0.69252      0.45391  1.0000
  Si          0.33040      0.10888      0.78723  1.0000
  Si          0.92160      0.25835      0.11891  1.0000
  Si          0.35005      0.26811      0.38103  1.0000
  Ge          0.90886      0.66995      0.04757  1.0000
  Si          0.75130      0.10764      0.71516  1.0000
  Si          0.66038      0.77771      0.88096  1.0000
  Si          0.10082      0.36132      0.54903  1.0000
  Si          0.25060      0.92315      0.21466  1.0000
  Si          0.97097      0.12634      0.96649  1.0000
  Si          0.89884      0.87946      0.29889  1.0000
  Si          0.14382      0.04991      0.63279  1.0000
  Si          0.04132      0.91338      0.46539  1.0000
  Si          0.10803      0.16444      0.79744  1.0000
  Si          0.86129      0.98136      0.13280  1.0000
  Si          0.12924      0.99128      0.36570  1.0000
  Si          0.84903      0.89209      0.03225  1.0000
  Si          0.02564      0.16823      0.69732  1.0000
  Si          0.88185      0.05409      0.86598  1.0000
  Si          0.15979      0.14372      0.53250  1.0000
  Si          0.97392      0.85919      0.19864  1.0000
  O2          0.93190      0.00765      0.99857  1.0000
  O2          0.02052      0.96465      0.32951  1.0000
  O2          0.06077      0.09199      0.66191  1.0000
  O2          0.07609      0.03143      0.49813  1.0000
  O2          0.99159      0.08002      0.83048  1.0000
  O2          0.93927      0.94057      0.16527  1.0000
  O1          0.36497      0.59694      0.33933  1.0000
  O1          0.41574      0.78962      0.67667  1.0000
  O3          0.23157      0.65319      0.00413  1.0000
  O1          0.65492      0.45418      0.83562  1.0000
  O1          0.58112      0.23969      0.17109  1.0000
  O1          0.77788      0.36551      0.50419  1.0000
  O1          0.56592      0.33266      0.00269  1.0000
  O1          0.76078      0.44626      0.67070  1.0000
  O1          0.68492      0.26704      0.33787  1.0000
  O1          0.44490      0.68721      0.51089  1.0000
  O1          0.24146      0.58412      0.17325  1.0000
  O1          0.32676      0.79007      0.84599  1.0000
  O2          0.12035      0.22270      0.97274  1.0000
  O2          0.80853      0.93975      0.30165  1.0000
  O2          0.08144      0.89942      0.63824  1.0000
  O2          0.89237      0.81350      0.47255  1.0000
  O2          0.20953      0.11793      0.80442  1.0000
  O2          0.92157      0.13246      0.13659  1.0000
  O2          0.23187      0.13961      0.36172  1.0000
  O3          0.90035      0.79711      0.02566  1.0000
  O2          0.87616      0.11281      0.69379  1.0000
  O2          0.77574      0.90718      0.86070  1.0000
  O2          0.10552      0.23864      0.53166  1.0000
  O2          0.12318      0.91397      0.19417  1.0000
  O2          0.93982      0.87828      0.24845  1.0000
  O2          0.14549      0.08739      0.58166  1.0000
  O2          0.93945      0.08097      0.91564  1.0000
  O2          0.06185      0.14530      0.74646  1.0000
  O2          0.87181      0.94296      0.08287  1.0000
  O2          0.06741      0.96118      0.41465  1.0000
  O2          0.89389      0.19542      0.98101  1.0000
  O2          0.82643      0.73633      0.31669  1.0000
  O2          0.28771      0.12052      0.65009  1.0000
  O3          0.11960      0.84665      0.47807  1.0000
  O3          0.17318      0.30949      0.81032  1.0000
  O2          0.71479      0.91202      0.14752  1.0000
  O3          0.19881      0.91400      0.35584  1.0000
  O3          0.70096      0.82141      0.02208  1.0000
  O2          0.09787      0.31791      0.68646  1.0000
  O3          0.81654      0.13534      0.85581  1.0000
  O2          0.30707      0.21845      0.51881  1.0000
  O2          0.90060      0.71014      0.18715  1.0000
  O1          0.36409      0.67036      0.25211  1.0000
  O1          0.34962      0.72195      0.58828  1.0000
  O3          0.29546      0.65451      0.92202  1.0000
  O1          0.64370      0.36802      0.74952  1.0000
  O1          0.65205      0.30811      0.08452  1.0000
  O1          0.70819      0.37449      0.41818  1.0000
  O3          0.36206      0.32297      0.96300  1.0000
  O3          0.70235      0.07628      0.29707  1.0000
  O3          0.94532      0.65464      0.62968  1.0000
  O3          0.64744      0.71064      0.46690  1.0000
  O3          0.30781      0.97280      0.80067  1.0000
  O3          0.05574      0.37662      0.13125  1.0000
  O3          0.34093      0.38308      0.36096  1.0000
  O1          0.03976      0.67963      0.02387  1.0000
  O3          0.63252      0.98541      0.69494  1.0000
  O3          0.66684      0.66365      0.85827  1.0000
  O3          0.98055      0.35394      0.52571  1.0000
  O3          0.36611      0.04379      0.19225  1.0000
  O3          0.78201      0.31317      0.00690  1.0000
  O3          0.70480      0.50340      0.34118  1.0000
  O3          0.52218      0.22821      0.67348  1.0000
  O1          0.23451      0.71659      0.50757  1.0000
  O1          0.30403      0.55301      0.84066  1.0000
  O3          0.48163      0.80000      0.17419  1.0000
  O1          0.30627      0.78178      0.32026  1.0000
  O3          0.45972      0.71145      0.98509  1.0000
  O3          0.23152      0.54614      0.65450  1.0000
  O1          0.71136      0.26647      0.81804  1.0000
  O3          0.53429      0.31390      0.48624  1.0000
  O3          0.77143      0.48470      0.15099  1.0000
  O1          0.77146      0.53805      0.03098  1.0000
  O3          0.47645      0.26951      0.36485  1.0000
  O3          0.75395      0.23650      0.70108  1.0000
  O3          0.22968      0.48606      0.53527  1.0000
  O3          0.53186      0.77795      0.86904  1.0000
  O3          0.25008      0.79456      0.20191  1.0000
  O3          0.56044      0.83885      0.31109  1.0000
  O2          0.27572      0.47328      0.97555  1.0000
  O3          0.18066      0.75018      0.64534  1.0000
  O3          0.45592      0.20936      0.81236  1.0000
  O3          0.73976      0.56720      0.47887  1.0000
  O3          0.81851      0.27829      0.14425  1.0000
  O3          0.21721      0.33946      0.89960  1.0000
  O2          0.67244      0.91282      0.23189  1.0000
  O3          0.11004      0.80285      0.56706  1.0000
  O2          0.78303      0.68902      0.40072  1.0000
  O2          0.33788      0.13161      0.73396  1.0000
  O2          0.89474      0.23929      0.06591  1.0000
  O2          0.33850      0.26439      0.43511  1.0000
  O3          0.92348      0.69166      0.10481  1.0000
  O3          0.76160      0.09761      0.76830  1.0000
  O3          0.68090      0.77818      0.93398  1.0000
  O2          0.08312      0.35054      0.60275  1.0000
  O3          0.24576      0.93945      0.26772  1.0000
  O1          0.57509      0.56498      0.99463  1.0000
  O1          0.45860      0.04102      0.32959  1.0000
  O3          0.98913      0.44916      0.66080  1.0000
  O3          0.43510      0.45775      0.49458  1.0000
  O1          0.55447      0.00989      0.83242  1.0000
  O3          0.01450      0.58364      0.16140  1.0000
  O3          0.59176      0.63873      0.34364  1.0000
  O3          0.03222      0.42858      0.00876  1.0000
  O3          0.38146      0.98170      0.67974  1.0000
  O1          0.42676      0.41127      0.83863  1.0000
  O1          0.96808      0.59262      0.50504  1.0000
  O3          0.61589      0.04774      0.17515  1.0000
  O1          0.58908      0.19640      0.25360  1.0000
  O1          0.82939      0.42194      0.58611  1.0000
  O1          0.59594      0.43698      0.91855  1.0000
  O1          0.41551      0.84390      0.75972  1.0000
  O1          0.17740      0.60721      0.08749  1.0000
  O1          0.41543      0.60369      0.42334  1.0000
  F           0.47352      0.95766      0.24402  1.0000
  F           0.06852      0.56000      0.57297  1.0000
  F           0.46708      0.54651      0.90737  1.0000
  F           0.53317      0.08085      0.74598  1.0000
  F           0.93717      0.48557      0.07446  1.0000
  F           0.54106      0.49186      0.40955  1.0000
