data_cif

_audit_creation_method             'generated by GULP'

_symmetry_space_group_name_H-M     'P 1'
_symmetry_Int_Tables_number        1
_symmetry_cell_setting             triclinic

_cell_length_a                       12.1917
_cell_length_b                       12.2239
_cell_length_c                       30.0295
_cell_angle_alpha                   90.7174
_cell_angle_beta                    88.5178
_cell_angle_gamma                  120.0441

loop_
_atom_site_label
_atom_site_fract_x
_atom_site_fract_y
_atom_site_fract_z
_atom_site_occupancy
  Ge          0.69960      0.37570      0.03389  1.0000
  Ge          0.60702      0.31790      0.37031  1.0000
  Ge          0.67122      0.28963      0.70058  1.0000
  Ge          0.29564      0.61444      0.54425  1.0000
  Ge          0.36244      0.67702      0.87586  1.0000
  Ge          0.31859      0.69165      0.21228  1.0000
  Ge          0.35365      0.67532      0.31127  1.0000
  Ge          0.30150      0.60382      0.98018  1.0000
  Ge          0.30991      0.68014      0.64422  1.0000
  Ge          0.61452      0.30786      0.80527  1.0000
  Ge          0.67891      0.34883      0.46834  1.0000
  Ge          0.67891      0.30436      0.13736  1.0000
  Ge          0.52268      0.41362      0.96850  1.0000
  Ge          0.54789      0.09105      0.30547  1.0000
  Ge          0.89985      0.46415      0.63593  1.0000
  Ge          0.46294      0.54871      0.48222  1.0000
  Ge          0.41008      0.89885      0.81261  1.0000
  Ge          0.10010      0.52591      0.14928  1.0000
  Ge          0.40360      0.50638      0.37720  1.0000
  Ge          0.08138      0.56577      0.04891  1.0000
  Ge          0.47100      0.89899      0.71234  1.0000
  Ge          0.56456      0.48483      0.86924  1.0000
  Ge          0.90478      0.40587      0.53143  1.0000
  Ge          0.49516      0.07541      0.20028  1.0000
  Ge          0.28645      0.39623      0.85196  1.0000
  Si          0.58782      0.87490      0.18718  1.0000
  Ge          0.11510      0.70232      0.51732  1.0000
  Ge          0.69749      0.59422      0.35361  1.0000
  Ge          0.38491      0.08573      0.68681  1.0000
  Si          0.90310      0.29482      0.02146  1.0000
  Si          0.39429      0.26130      0.48489  1.0000
  Ge          0.87501      0.59390      0.15430  1.0000
  Si          0.70052      0.11005      0.81998  1.0000
  Si          0.59257      0.69757      0.98572  1.0000
  Si          0.11131      0.38998      0.64958  1.0000
  Si          0.25936      0.86951      0.31644  1.0000
  Si          0.24001      0.32473      0.95446  1.0000
  Si          0.63658      0.89189      0.28939  1.0000
  Si          0.09621      0.74765      0.62050  1.0000
  Si          0.74926      0.63499      0.45653  1.0000
  Si          0.32766      0.09286      0.79000  1.0000
  Si          0.90106      0.24430      0.12366  1.0000
  Si          0.32452      0.22206      0.38321  1.0000
  Si          0.90123      0.66433      0.05184  1.0000
  Si          0.75071      0.08506      0.71837  1.0000
  Si          0.65265      0.75999      0.88434  1.0000
  Si          0.10959      0.32956      0.54722  1.0000
  Si          0.21107      0.86999      0.21400  1.0000
  Si          0.96334      0.11249      0.96916  1.0000
  Si          0.86439      0.84984      0.30234  1.0000
  Si          0.14136      0.01795      0.63522  1.0000
  Si          0.01988      0.86206      0.46879  1.0000
  Si          0.10806      0.15133      0.80176  1.0000
  Si          0.84140      0.96603      0.13546  1.0000
  Si          0.09210      0.95418      0.36838  1.0000
  Si          0.83819      0.87599      0.03464  1.0000
  Si          0.02729      0.14063      0.70100  1.0000
  Si          0.87242      0.03702      0.86874  1.0000
  Si          0.14273      0.09448      0.53427  1.0000
  Si          0.94445      0.84283      0.20201  1.0000
  O2          0.91725      0.98907      0.99964  1.0000
  O2          0.97782      0.93092      0.33662  1.0000
  O2          0.05569      0.05255      0.66801  1.0000
  O2          0.05278      0.97857      0.50249  1.0000
  O2          0.98608      0.06670      0.83382  1.0000
  O2          0.92496      0.93061      0.16673  1.0000
  O1          0.31842      0.56327      0.35071  1.0000
  O1          0.41843      0.75547      0.68262  1.0000
  O1          0.22414      0.64533      0.01592  1.0000
  O1          0.65437      0.43744      0.83471  1.0000
  O1          0.54434      0.20492      0.16649  1.0000
  O1          0.77037      0.31564      0.50133  1.0000
  O1          0.57028      0.33394      0.00213  1.0000
  O1          0.77111      0.42188      0.66956  1.0000
  O1          0.63758      0.21755      0.33587  1.0000
  O1          0.43759      0.64137      0.51663  1.0000
  O1          0.21822      0.55282      0.18305  1.0000
  O1          0.32910      0.78329      0.85131  1.0000
  O2          0.11456      0.19760      0.97364  1.0000
  O2          0.76270      0.89697      0.30890  1.0000
  O2          0.09220      0.86910      0.64202  1.0000
  O2          0.87345      0.75650      0.47807  1.0000
  O2          0.20880      0.10477      0.81048  1.0000
  O2          0.89618      0.11537      0.14038  1.0000
  O2          0.19138      0.10318      0.36734  1.0000
  O2          0.89875      0.78610      0.03176  1.0000
  O2          0.87753      0.08624      0.70033  1.0000
  O2          0.77540      0.88825      0.86649  1.0000
  O2          0.10020      0.19857      0.53035  1.0000
  O2          0.08981      0.87526      0.19572  1.0000
  O2          0.92044      0.87768      0.25191  1.0000
  O2          0.12251      0.04499      0.58459  1.0000
  O2          0.92558      0.07395      0.91824  1.0000
  O2          0.06702      0.12949      0.75051  1.0000
  O2          0.85117      0.93182      0.08420  1.0000
  O2          0.03883      0.91215      0.41835  1.0000
  O2          0.89673      0.19100      0.98579  1.0000
  O3          0.79837      0.70373      0.31357  1.0000
  O3          0.28592      0.09707      0.64788  1.0000
  O3          0.10831      0.80415      0.47836  1.0000
  O3          0.17079      0.29644      0.81404  1.0000
  O2          0.69498      0.88697      0.15119  1.0000
  O2          0.15950      0.87576      0.35202  1.0000
  O2          0.69041      0.79580      0.02229  1.0000
  O2          0.10248      0.28663      0.68552  1.0000
  O2          0.79947      0.11203      0.85613  1.0000
  O2          0.29113      0.15759      0.51998  1.0000
  O3          0.85822      0.69590      0.19230  1.0000
  O1          0.31207      0.60727      0.26035  1.0000
  O1          0.37378      0.69858      0.59166  1.0000
  O1          0.28731      0.64270      0.92628  1.0000
  O1          0.64934      0.34659      0.74976  1.0000
  O1          0.63837      0.29733      0.08292  1.0000
  O1          0.69093      0.30696      0.41523  1.0000
  O3          0.35975      0.30835      0.96350  1.0000
  O3          0.64487      0.02301      0.29874  1.0000
  O3          0.95912      0.62451      0.62721  1.0000
  O3          0.62663      0.64250      0.46926  1.0000
  O3          0.30756      0.95797      0.80393  1.0000
  O3          0.03099      0.35993      0.13800  1.0000
  O3          0.32542      0.34531      0.36505  1.0000
  O3          0.02624      0.66962      0.03238  1.0000
  O3          0.63466      0.96057      0.69907  1.0000
  O3          0.66129      0.64888      0.85926  1.0000
  O3          0.99179      0.32948      0.52444  1.0000
  O3          0.33297      0.99150      0.19283  1.0000
  O3          0.78800      0.31613      0.00833  1.0000
  O1          0.68736      0.45546      0.33739  1.0000
  O1          0.53137      0.21212      0.67273  1.0000
  O1          0.24977      0.69643      0.50737  1.0000
  O1          0.29929      0.54130      0.84420  1.0000
  O3          0.45946      0.74792      0.17771  1.0000
  O3          0.25372      0.73796      0.32407  1.0000
  O3          0.46499      0.70126      0.99027  1.0000
  O3          0.24380      0.51483      0.65443  1.0000
  O3          0.71098      0.24492      0.81991  1.0000
  O3          0.51946      0.25043      0.48540  1.0000
  O1          0.73117      0.45691      0.15472  1.0000
  O3          0.77423      0.53940      0.03556  1.0000
  O3          0.43920      0.21067      0.36210  1.0000
  O3          0.75832      0.21194      0.70030  1.0000
  O3          0.24041      0.44705      0.53157  1.0000
  O3          0.52816      0.76547      0.87245  1.0000
  O3          0.20546      0.74347      0.19770  1.0000
  O3          0.51610      0.78154      0.31527  1.0000
  O3          0.26210      0.44620      0.98235  1.0000
  O3          0.19263      0.72326      0.64755  1.0000
  O3          0.45581      0.19467      0.81322  1.0000
  O3          0.73946      0.51003      0.47752  1.0000
  O3          0.78559      0.25334      0.14713  1.0000
  O3          0.21179      0.32757      0.90278  1.0000
  O2          0.63916      0.86695      0.23609  1.0000
  O3          0.12715      0.77823      0.56832  1.0000
  O3          0.77739      0.64823      0.40348  1.0000
  O3          0.32492      0.10971      0.73716  1.0000
  O2          0.88052      0.22862      0.07016  1.0000
  O2          0.32311      0.22085      0.43760  1.0000
  O3          0.90348      0.67908      0.10545  1.0000
  O2          0.74864      0.08152      0.77261  1.0000
  O2          0.66426      0.75137      0.93790  1.0000
  O2          0.09291      0.32154      0.60148  1.0000
  O2          0.20829      0.88134      0.26838  1.0000
  O3          0.56461      0.55689      0.99486  1.0000
  O3          0.40031      0.97862      0.32681  1.0000
  O3          0.00224      0.42450      0.66040  1.0000
  O3          0.43523      0.40180      0.50042  1.0000
  O3          0.55845      0.00584      0.83362  1.0000
  O1          0.98258      0.55456      0.17090  1.0000
  O1          0.55308      0.58720      0.35293  1.0000
  O3          0.03412      0.42361      0.01698  1.0000
  O1          0.38220      0.94625      0.67963  1.0000
  O1          0.42436      0.39890      0.83850  1.0000
  O1          0.98068      0.55697      0.51049  1.0000
  O3          0.57404      0.99842      0.18110  1.0000
  O1          0.52947      0.13342      0.25285  1.0000
  O1          0.85116      0.39163      0.58545  1.0000
  O1          0.59340      0.42691      0.91779  1.0000
  O1          0.41885      0.82807      0.76434  1.0000
  O1          0.15971      0.59833      0.09879  1.0000
  O1          0.38894      0.52983      0.43216  1.0000
  F           0.40121      0.84184      0.24536  1.0000
  F           0.13690      0.55487      0.57449  1.0000
  F           0.45421      0.52761      0.90793  1.0000
  F           0.52355      0.06405      0.74333  1.0000
  F           0.92191      0.47059      0.08180  1.0000
  F           0.55624      0.41228      0.40925  1.0000
