data_cif

_audit_creation_method             'generated by GULP'

_symmetry_space_group_name_H-M     'P 1'
_symmetry_Int_Tables_number        1
_symmetry_cell_setting             triclinic

_cell_length_a                       11.9593
_cell_length_b                       11.9716
_cell_length_c                       29.5117
_cell_angle_alpha                   89.9997
_cell_angle_beta                    89.4829
_cell_angle_gamma                  119.8656

loop_
_atom_site_label
_atom_site_fract_x
_atom_site_fract_y
_atom_site_fract_z
_atom_site_occupancy
  Si          0.69960      0.37570      0.03389  1.0000
  Si          0.60995      0.33272      0.36522  1.0000
  Si          0.67137      0.30808      0.69740  1.0000
  Si          0.28156      0.62542      0.53266  1.0000
  Si          0.37356      0.67793      0.86303  1.0000
  Si          0.31616      0.70357      0.19649  1.0000
  Si          0.37177      0.71123      0.29852  1.0000
  Si          0.32086      0.61780      0.96526  1.0000
  Si          0.28800      0.68279      0.63479  1.0000
  Si          0.61467      0.30643      0.79986  1.0000
  Si          0.66315      0.38722      0.46549  1.0000
  Si          0.69234      0.31757      0.13532  1.0000
  Si          0.53043      0.40606      0.96613  1.0000
  Si          0.58308      0.13119      0.29920  1.0000
  Ge          0.89157      0.47760      0.63112  1.0000
  Si          0.45465      0.58983      0.46582  1.0000
  Si          0.41174      0.89213      0.79902  1.0000
  Si          0.10504      0.52577      0.13347  1.0000
  Si          0.40703      0.53906      0.36478  1.0000
  Si          0.11029      0.57768      0.03250  1.0000
  Si          0.46327      0.89575      0.69818  1.0000
  Ge          0.56440      0.47353      0.86722  1.0000
  Si          0.86225      0.41448      0.53229  1.0000
  Ge          0.52004      0.09776      0.20059  1.0000
  Si          0.29231      0.39509      0.84444  1.0000
  Si          0.59965      0.90436      0.17795  1.0000
  Si          0.07536      0.70118      0.51854  1.0000
  Si          0.68712      0.61091      0.35052  1.0000
  Si          0.39224      0.10390      0.68408  1.0000
  Si          0.90189      0.29901      0.01909  1.0000
  Si          0.38380      0.30990      0.47959  1.0000
  Si          0.89612      0.59728      0.14768  1.0000
  Si          0.69060      0.10176      0.81254  1.0000
  Si          0.60240      0.69292      0.97925  1.0000
  Si          0.08670      0.39979      0.65315  1.0000
  Si          0.29583      0.91730      0.31251  1.0000
  Si          0.25065      0.33310      0.94740  1.0000
  Si          0.65731      0.92477      0.28092  1.0000
  Si          0.07351      0.75634      0.62062  1.0000
  Si          0.73465      0.66869      0.45104  1.0000
  Si          0.33393      0.09293      0.78487  1.0000
  Si          0.90476      0.24771      0.11982  1.0000
  Si          0.32775      0.25983      0.37912  1.0000
  Si          0.90963      0.65668      0.04713  1.0000
  Si          0.74073      0.09549      0.71180  1.0000
  Si          0.66147      0.75217      0.87717  1.0000
  Si          0.06835      0.34020      0.55023  1.0000
  Si          0.24104      0.91699      0.21039  1.0000
  Si          0.96798      0.12044      0.96501  1.0000
  Si          0.87005      0.85613      0.29839  1.0000
  Si          0.14850      0.04041      0.63255  1.0000
  Si          0.01461      0.88511      0.46595  1.0000
  Si          0.11015      0.14869      0.79822  1.0000
  Si          0.84569      0.96661      0.12994  1.0000
  Si          0.11111      0.97949      0.36434  1.0000
  Si          0.84963      0.87533      0.02929  1.0000
  Si          0.02060      0.15125      0.69858  1.0000
  Si          0.87069      0.03737      0.86410  1.0000
  Si          0.13768      0.12710      0.53159  1.0000
  Si          0.95710      0.84256      0.19725  1.0000
  O2          0.92811      0.99343      0.99489  1.0000
  O2          0.99138      0.93674      0.33094  1.0000
  O2          0.06120      0.07674      0.66318  1.0000
  O2          0.05721      0.00749      0.49810  1.0000
  O2          0.99202      0.07123      0.83232  1.0000
  O2          0.92237      0.92315      0.16284  1.0000
  O2          0.33351      0.59093      0.33207  1.0000
  O2          0.41259      0.76975      0.66520  1.0000
  O2          0.23644      0.65241      0.99939  1.0000
  O3          0.65170      0.42454      0.83148  1.0000
  O3          0.57104      0.23579      0.16586  1.0000
  O2          0.74765      0.34435      0.49537  1.0000
  O2          0.57341      0.33497      0.00335  1.0000
  O3          0.75420      0.42818      0.66617  1.0000
  O2          0.65326      0.24686      0.33566  1.0000
  O2          0.40207      0.66305      0.49866  1.0000
  O2          0.23050      0.57757      0.16622  1.0000
  O2          0.33664      0.76581      0.83211  1.0000
  O2          0.12260      0.21040      0.96845  1.0000
  O2          0.77971      0.92076      0.30228  1.0000
  O2          0.08841      0.88877      0.63931  1.0000
  O2          0.85970      0.79598      0.47066  1.0000
  O2          0.20701      0.09305      0.80520  1.0000
  O2          0.90279      0.11879      0.13859  1.0000
  O2          0.20067      0.13412      0.35957  1.0000
  O2          0.91258      0.78363      0.02609  1.0000
  O2          0.86857      0.09678      0.69158  1.0000
  O2          0.77922      0.88549      0.85887  1.0000
  O2          0.07279      0.21729      0.52907  1.0000
  O2          0.10939      0.90329      0.19169  1.0000
  O2          0.91976      0.86252      0.24768  1.0000
  O2          0.13364      0.07356      0.58111  1.0000
  O2          0.92240      0.07674      0.91454  1.0000
  O2          0.05329      0.12386      0.74816  1.0000
  O2          0.86467      0.93553      0.07877  1.0000
  O2          0.05773      0.93567      0.41493  1.0000
  O2          0.89908      0.19955      0.98138  1.0000
  O2          0.78721      0.70633      0.31228  1.0000
  O2          0.29853      0.11161      0.64561  1.0000
  O2          0.07898      0.79907      0.47951  1.0000
  O2          0.18198      0.30142      0.80878  1.0000
  O2          0.69337      0.88674      0.14193  1.0000
  O2          0.19759      0.91466      0.35138  1.0000
  O2          0.69786      0.79013      0.01772  1.0000
  O2          0.10217      0.30470      0.68874  1.0000
  O2          0.79116      0.10805      0.85080  1.0000
  O2          0.28765      0.21079      0.51760  1.0000
  O2          0.88846      0.69099      0.18632  1.0000
  O2          0.31823      0.65799      0.24837  1.0000
  O2          0.33445      0.67979      0.58273  1.0000
  O2          0.32344      0.67405      0.91503  1.0000
  O2          0.66676      0.35559      0.74856  1.0000
  O2          0.64481      0.31884      0.08378  1.0000
  O2          0.66400      0.33308      0.41528  1.0000
  O2          0.37174      0.32286      0.96631  1.0000
  O2          0.66656      0.05598      0.29963  1.0000
  O3          0.94277      0.64448      0.64028  1.0000
  O2          0.61063      0.67772      0.46911  1.0000
  O2          0.32204      0.95872      0.80299  1.0000
  O2          0.03919      0.36985      0.13731  1.0000
  O2          0.31881      0.38329      0.36085  1.0000
  O2          0.04194      0.66546      0.02828  1.0000
  O2          0.61929      0.96182      0.69343  1.0000
  O3          0.68038      0.64052      0.85746  1.0000
  O2          0.93760      0.33113      0.53127  1.0000
  O3          0.35371      0.04698      0.19061  1.0000
  O2          0.77128      0.30442      0.01079  1.0000
  O2          0.68429      0.47582      0.34260  1.0000
  O2          0.52597      0.23557      0.67646  1.0000
  O2          0.20776      0.69658      0.51252  1.0000
  O2          0.29631      0.53337      0.84276  1.0000
  O2          0.46146      0.77095      0.17607  1.0000
  O2          0.29989      0.78502      0.31852  1.0000
  O2          0.46564      0.68883      0.98527  1.0000
  O2          0.22059      0.53752      0.65494  1.0000
  O2          0.68772      0.23286      0.82009  1.0000
  O2          0.51894      0.31323      0.48745  1.0000
  O2          0.76344      0.46438      0.15495  1.0000
  O2          0.78205      0.53192      0.02873  1.0000
  O2          0.45384      0.25903      0.35956  1.0000
  O2          0.74020      0.21983      0.69190  1.0000
  O2          0.19164      0.47103      0.53186  1.0000
  O2          0.52785      0.74220      0.86002  1.0000
  O2          0.25116      0.79305      0.19326  1.0000
  O2          0.52615      0.80199      0.29916  1.0000
  O2          0.25809      0.46368      0.96546  1.0000
  O2          0.19698      0.74608      0.63758  1.0000
  O2          0.45803      0.21628      0.80483  1.0000
  O2          0.73518      0.54321      0.47061  1.0000
  O2          0.78227      0.25076      0.14091  1.0000
  O2          0.23584      0.32136      0.89328  1.0000
  O2          0.67121      0.92082      0.22678  1.0000
  O2          0.07287      0.76799      0.56541  1.0000
  O2          0.75565      0.68512      0.39679  1.0000
  O2          0.31608      0.09668      0.73065  1.0000
  O2          0.90196      0.22801      0.06565  1.0000
  O2          0.31050      0.24031      0.43329  1.0000
  O2          0.90653      0.67513      0.10134  1.0000
  O2          0.76070      0.09658      0.76596  1.0000
  O2          0.67193      0.76102      0.93228  1.0000
  O2          0.07105      0.32748      0.60427  1.0000
  O2          0.22948      0.91873      0.26554  1.0000
  O2          0.58258      0.55135      0.98630  1.0000
  O2          0.43705      0.03888      0.31959  1.0000
  O3          0.96391      0.40863      0.66647  1.0000
  O2          0.39448      0.44801      0.48853  1.0000
  O2          0.55284      0.97318      0.82213  1.0000
  O2          0.02281      0.58507      0.15719  1.0000
  O2          0.54898      0.60020      0.34143  1.0000
  O2          0.03111      0.43595      0.00983  1.0000
  O2          0.40181      0.97551      0.67434  1.0000
  O3          0.42417      0.40459      0.83125  1.0000
  O2          0.95374      0.55995      0.51145  1.0000
  O3          0.59118      0.02708      0.16477  1.0000
  O3          0.59001      0.19187      0.25111  1.0000
  O3          0.79921      0.40697      0.58011  1.0000
  O3          0.58643      0.40119      0.91799  1.0000
  O2          0.40825      0.83481      0.74846  1.0000
  O2          0.16515      0.58131      0.08319  1.0000
  O2          0.40275      0.59224      0.41518  1.0000
  F           0.46573      0.95301      0.23814  1.0000
  F           0.03720      0.53153      0.59290  1.0000
  F           0.47224      0.52602      0.90469  1.0000
  F           0.53328      0.08572      0.74766  1.0000
  F           0.91070      0.45447      0.08292  1.0000
  F           0.53213      0.46325      0.41449  1.0000
