data_cif

_audit_creation_method             'generated by GULP'

_symmetry_space_group_name_H-M     'P 1'
_symmetry_Int_Tables_number        1
_symmetry_cell_setting             triclinic

_cell_length_a                       11.9881
_cell_length_b                       11.9593
_cell_length_c                       29.4864
_cell_angle_alpha                   90.5060
_cell_angle_beta                    90.2718
_cell_angle_gamma                  119.9641

loop_
_atom_site_label
_atom_site_fract_x
_atom_site_fract_y
_atom_site_fract_z
_atom_site_occupancy
  Si          0.69960      0.37570      0.03389  1.0000
  Si          0.60858      0.32695      0.36652  1.0000
  Si          0.67577      0.30371      0.69934  1.0000
  Si          0.30421      0.61958      0.53457  1.0000
  Si          0.37540      0.66781      0.86683  1.0000
  Si          0.30549      0.69506      0.19881  1.0000
  Si          0.36696      0.70651      0.30041  1.0000
  Si          0.32150      0.61620      0.96680  1.0000
  Si          0.28953      0.66898      0.63581  1.0000
  Ge          0.60694      0.27344      0.79746  1.0000
  Si          0.67311      0.37746      0.46865  1.0000
  Si          0.69292      0.32043      0.13608  1.0000
  Si          0.52665      0.41215      0.96773  1.0000
  Si          0.56798      0.11520      0.29995  1.0000
  Si          0.88323      0.46305      0.63175  1.0000
  Ge          0.47113      0.56970      0.46750  1.0000
  Si          0.41084      0.88192      0.80463  1.0000
  Ge          0.08624      0.52376      0.13229  1.0000
  Si          0.39889      0.53867      0.36875  1.0000
  Si          0.12087      0.58762      0.03347  1.0000
  Si          0.46251      0.88144      0.70164  1.0000
  Si          0.57820      0.45526      0.86535  1.0000
  Si          0.88971      0.41393      0.53063  1.0000
  Si          0.51491      0.10944      0.19895  1.0000
  Si          0.29672      0.38860      0.85325  1.0000
  Si          0.58534      0.89898      0.18591  1.0000
  Si          0.09997      0.69487      0.51932  1.0000
  Si          0.68488      0.60939      0.35454  1.0000
  Si          0.39142      0.09598      0.68845  1.0000
  Si          0.90518      0.29966      0.02028  1.0000
  Si          0.39230      0.29690      0.48921  1.0000
  Si          0.89415      0.60408      0.15520  1.0000
  Si          0.69798      0.09286      0.82102  1.0000
  Si          0.59818      0.69257      0.98255  1.0000
  Si          0.08930      0.39068      0.64897  1.0000
  Si          0.29046      0.90875      0.31457  1.0000
  Si          0.24776      0.33423      0.95391  1.0000
  Si          0.64755      0.91546      0.28654  1.0000
  Si          0.08299      0.74225      0.61972  1.0000
  Si          0.74903      0.66632      0.45672  1.0000
  Si          0.32531      0.08172      0.79066  1.0000
  Si          0.90509      0.24444      0.12255  1.0000
  Si          0.32577      0.25782      0.38623  1.0000
  Si          0.91429      0.66123      0.05215  1.0000
  Si          0.74313      0.08637      0.71782  1.0000
  Si          0.65447      0.73577      0.88216  1.0000
  Si          0.09055      0.33747      0.54788  1.0000
  Si          0.23708      0.90912      0.21373  1.0000
  Si          0.96990      0.11474      0.97071  1.0000
  Si          0.86685      0.85637      0.30448  1.0000
  Si          0.14095      0.02116      0.63725  1.0000
  Si          0.03494      0.87581      0.46975  1.0000
  Si          0.10768      0.13951      0.80292  1.0000
  Si          0.83030      0.95984      0.13678  1.0000
  Si          0.11285      0.97536      0.36886  1.0000
  Si          0.84454      0.87312      0.03578  1.0000
  Si          0.01935      0.14440      0.70144  1.0000
  Si          0.87195      0.01401      0.87026  1.0000
  Si          0.14865      0.11484      0.53659  1.0000
  Si          0.95620      0.84996      0.20384  1.0000
  O2          0.92899      0.99929      0.00593  1.0000
  O2          0.98425      0.93412      0.33962  1.0000
  O2          0.05974      0.05931      0.67072  1.0000
  O2          0.06940      0.99273      0.50406  1.0000
  O2          0.99029      0.06274      0.83649  1.0000
  O2          0.91137      0.92801      0.17225  1.0000
  O2          0.32697      0.58188      0.33200  1.0000
  O2          0.41201      0.75547      0.66956  1.0000
  O2          0.23513      0.65834      0.99686  1.0000
  O3          0.65173      0.40923      0.83365  1.0000
  O2          0.56639      0.23411      0.16605  1.0000
  O2          0.76418      0.33899      0.49728  1.0000
  O2          0.57916      0.33865      0.00054  1.0000
  O2          0.75392      0.41168      0.66160  1.0000
  O2          0.64341      0.24360      0.33233  1.0000
  O3          0.42438      0.65716      0.50458  1.0000
  O3          0.22328      0.57401      0.16817  1.0000
  O2          0.33673      0.75332      0.83472  1.0000
  O2          0.12407      0.20719      0.97451  1.0000
  O2          0.77571      0.91974      0.30733  1.0000
  O2          0.08007      0.86714      0.64046  1.0000
  O2          0.88338      0.78310      0.47516  1.0000
  O2          0.18800      0.06484      0.80604  1.0000
  O2          0.89073      0.11241      0.14123  1.0000
  O2          0.20171      0.13027      0.36528  1.0000
  O2          0.90915      0.78313      0.03093  1.0000
  O2          0.86554      0.08392      0.69597  1.0000
  O2          0.78343      0.86028      0.86301  1.0000
  O2          0.09283      0.21122      0.52827  1.0000
  O2          0.10811      0.90697      0.19495  1.0000
  O2          0.92773      0.86908      0.25544  1.0000
  O2          0.12820      0.06579      0.58766  1.0000
  O2          0.92643      0.05233      0.92112  1.0000
  O2          0.05376      0.13375      0.75286  1.0000
  O2          0.84900      0.91727      0.08725  1.0000
  O2          0.07224      0.93258      0.41991  1.0000
  O2          0.90338      0.20087      0.98177  1.0000
  O2          0.78063      0.70478      0.31611  1.0000
  O2          0.29232      0.09180      0.65005  1.0000
  O2          0.10638      0.79514      0.48092  1.0000
  O2          0.19647      0.29047      0.81521  1.0000
  O2          0.67871      0.89108      0.14758  1.0000
  O2          0.19178      0.90680      0.35241  1.0000
  O2          0.69541      0.79283      0.02083  1.0000
  O2          0.09057      0.29415      0.68732  1.0000
  O2          0.78767      0.08090      0.85948  1.0000
  O2          0.30044      0.18607      0.52504  1.0000
  O2          0.87637      0.69775      0.19139  1.0000
  O2          0.30829      0.64936      0.25073  1.0000
  O2          0.35020      0.66906      0.58701  1.0000
  O2          0.32196      0.67369      0.91689  1.0000
  O3          0.68245      0.36739      0.74739  1.0000
  O2          0.64721      0.32237      0.08420  1.0000
  O2          0.66576      0.32834      0.41658  1.0000
  O2          0.37115      0.32646      0.97280  1.0000
  O2          0.65670      0.04822      0.30522  1.0000
  O2          0.95104      0.61925      0.63731  1.0000
  O3          0.63846      0.68513      0.47737  1.0000
  O2          0.32318      0.94992      0.80646  1.0000
  O3          0.03530      0.35724      0.14255  1.0000
  O2          0.31506      0.37979      0.36869  1.0000
  O2          0.04568      0.67117      0.03382  1.0000
  O2          0.61810      0.95441      0.70026  1.0000
  O2          0.66412      0.61311      0.86510  1.0000
  O2          0.95724      0.32520      0.52855  1.0000
  O2          0.35891      0.04298      0.19585  1.0000
  O2          0.77275      0.30320      0.01404  1.0000
  O2          0.67956      0.47251      0.34735  1.0000
  O2          0.52569      0.22768      0.68089  1.0000
  O2          0.23350      0.69554      0.51433  1.0000
  O2          0.29641      0.52278      0.84544  1.0000
  O2          0.45227      0.76588      0.17946  1.0000
  O2          0.29601      0.77834      0.32351  1.0000
  O2          0.46334      0.69000      0.99101  1.0000
  O2          0.22000      0.52702      0.65881  1.0000
  O3          0.70377      0.22556      0.82972  1.0000
  O2          0.53050      0.30072      0.49026  1.0000
  O2          0.76057      0.46551      0.15702  1.0000
  O2          0.79159      0.52999      0.03371  1.0000
  O2          0.45470      0.26532      0.36687  1.0000
  O2          0.73878      0.20984      0.69933  1.0000
  O2          0.21401      0.46297      0.52879  1.0000
  O2          0.53077      0.73875      0.86134  1.0000
  O2          0.24007      0.78610      0.19336  1.0000
  O2          0.52342      0.78805      0.30550  1.0000
  O2          0.24402      0.45968      0.97268  1.0000
  O2          0.21044      0.74639      0.64014  1.0000
  O3          0.43915      0.20703      0.81287  1.0000
  O2          0.73924      0.53200      0.47317  1.0000
  O2          0.78142      0.25456      0.13978  1.0000
  O2          0.22799      0.31468      0.89963  1.0000
  O2          0.66426      0.91112      0.23236  1.0000
  O2          0.08743      0.76250      0.56553  1.0000
  O2          0.75535      0.67753      0.40166  1.0000
  O2          0.32224      0.09198      0.73550  1.0000
  O2          0.90628      0.23332      0.06744  1.0000
  O2          0.31712      0.24130      0.44043  1.0000
  O2          0.91037      0.67538      0.10640  1.0000
  O2          0.75921      0.08679      0.77218  1.0000
  O2          0.67067      0.76182      0.93636  1.0000
  O2          0.09062      0.31962      0.60226  1.0000
  O2          0.21865      0.90795      0.26801  1.0000
  O2          0.58889      0.55476      0.99102  1.0000
  O2          0.42754      0.03857      0.32366  1.0000
  O2          0.96082      0.40039      0.65636  1.0000
  O3          0.40249      0.42871      0.50317  1.0000
  O2          0.55216      0.97167      0.82651  1.0000
  O3          0.01690      0.59589      0.16845  1.0000
  O2          0.54361      0.59080      0.34858  1.0000
  O2          0.02662      0.44113      0.01357  1.0000
  O2          0.41165      0.97346      0.68200  1.0000
  O2          0.43529      0.40488      0.84378  1.0000
  O2          0.97520      0.55521      0.50835  1.0000
  O2          0.57193      0.02472      0.17602  1.0000
  O2          0.57135      0.16971      0.24928  1.0000
  O2          0.83144      0.41233      0.58044  1.0000
  O2          0.57424      0.40514      0.91726  1.0000
  O2          0.41541      0.83742      0.75291  1.0000
  O3          0.18056      0.59358      0.08202  1.0000
  O3          0.39684      0.59348      0.41761  1.0000
  F           0.44478      0.91568      0.25198  1.0000
  F           0.08740      0.54103      0.58588  1.0000
  F           0.44494      0.54171      0.91954  1.0000
  F           0.55215      0.12717      0.76147  1.0000
  F           0.94136      0.46951      0.09514  1.0000
  F           0.52154      0.47792      0.42944  1.0000
