data_cif

_audit_creation_method             'generated by GULP'

_symmetry_space_group_name_H-M     'P 1'
_symmetry_Int_Tables_number        1
_symmetry_cell_setting             triclinic

_cell_length_a                       11.9909
_cell_length_b                       11.9596
_cell_length_c                       29.5005
_cell_angle_alpha                   89.8196
_cell_angle_beta                    89.7528
_cell_angle_gamma                  119.9972

loop_
_atom_site_label
_atom_site_fract_x
_atom_site_fract_y
_atom_site_fract_z
_atom_site_occupancy
  Si          0.69960      0.37570      0.03389  1.0000
  Si          0.62932      0.32803      0.36926  1.0000
  Si          0.68162      0.28964      0.69765  1.0000
  Si          0.30265      0.62403      0.53423  1.0000
  Si          0.37997      0.65963      0.87111  1.0000
  Si          0.33623      0.70850      0.20430  1.0000
  Si          0.39088      0.70898      0.30468  1.0000
  Si          0.31769      0.61040      0.97376  1.0000
  Si          0.30903      0.68060      0.63569  1.0000
  Si          0.62151      0.28138      0.79971  1.0000
  Si          0.68229      0.38111      0.46975  1.0000
  Si          0.71414      0.32899      0.13655  1.0000
  Ge          0.52421      0.41972      0.96848  1.0000
  Si          0.59437      0.11936      0.30441  1.0000
  Si          0.89640      0.47058      0.63516  1.0000
  Si          0.47636      0.58575      0.47011  1.0000
  Si          0.41059      0.85946      0.80155  1.0000
  Si          0.13562      0.53878      0.13689  1.0000
  Si          0.42697      0.53411      0.36870  1.0000
  Ge          0.09605      0.56629      0.03828  1.0000
  Ge          0.47784      0.89542      0.70262  1.0000
  Si          0.59057      0.44890      0.86961  1.0000
  Si          0.89296      0.41978      0.53407  1.0000
  Si          0.54314      0.11843      0.20302  1.0000
  Si          0.30497      0.37810      0.85701  1.0000
  Si          0.61434      0.90972      0.18893  1.0000
  Si          0.10140      0.70041      0.51985  1.0000
  Si          0.70709      0.60664      0.35418  1.0000
  Si          0.39899      0.08919      0.67977  1.0000
  Si          0.90240      0.29400      0.01606  1.0000
  Si          0.40418      0.30417      0.48433  1.0000
  Si          0.92012      0.61008      0.14991  1.0000
  Si          0.69666      0.07446      0.81409  1.0000
  Si          0.60192      0.69253      0.99033  1.0000
  Si          0.10495      0.39983      0.64911  1.0000
  Si          0.31355      0.91022      0.31851  1.0000
  Si          0.24559      0.32263      0.95948  1.0000
  Si          0.67195      0.91788      0.28941  1.0000
  Si          0.09657      0.74942      0.62074  1.0000
  Si          0.75469      0.66287      0.45478  1.0000
  Si          0.33688      0.06685      0.78291  1.0000
  Si          0.92815      0.25820      0.11889  1.0000
  Si          0.34843      0.25495      0.38371  1.0000
  Si          0.91510      0.66402      0.04742  1.0000
  Si          0.75659      0.07659      0.71203  1.0000
  Si          0.66465      0.73053      0.88732  1.0000
  Si          0.09359      0.34238      0.54864  1.0000
  Si          0.26409      0.91799      0.21790  1.0000
  Si          0.96007      0.10966      0.96755  1.0000
  Si          0.88886      0.85444      0.30275  1.0000
  Si          0.15413      0.02973      0.63354  1.0000
  Si          0.03378      0.88061      0.46870  1.0000
  Si          0.12431      0.13620      0.80196  1.0000
  Si          0.86145      0.97760      0.13701  1.0000
  Si          0.13037      0.97541      0.36800  1.0000
  Si          0.84471      0.87879      0.03640  1.0000
  Si          0.04233      0.15449      0.70063  1.0000
  Si          0.87863      0.01153      0.86665  1.0000
  Si          0.15334      0.12353      0.53330  1.0000
  Si          0.98478      0.85668      0.20164  1.0000
  O2          0.92257      0.98970      1.00000  1.0000
  O2          0.01265      0.93491      0.33390  1.0000
  O2          0.07956      0.07081      0.66863  1.0000
  O2          0.07588      0.00451      0.49982  1.0000
  O2          0.99889      0.05015      0.83302  1.0000
  O2          0.94466      0.93713      0.16846  1.0000
  O2          0.35097      0.58458      0.33685  1.0000
  O3          0.42807      0.76005      0.66686  1.0000
  O3          0.23423      0.65032      0.00234  1.0000
  O2          0.65973      0.40399      0.83164  1.0000
  O2          0.59464      0.24484      0.17047  1.0000
  O2          0.76690      0.34289      0.50222  1.0000
  O3          0.57761      0.33618      0.00460  1.0000
  O2          0.76928      0.41745      0.66775  1.0000
  O2          0.66953      0.24443      0.33667  1.0000
  O2          0.42659      0.66256      0.50175  1.0000
  O2          0.25025      0.58198      0.17375  1.0000
  O2          0.34144      0.74475      0.83922  1.0000
  O2          0.11013      0.20441      0.97658  1.0000
  O2          0.79869      0.91840      0.30887  1.0000
  O2          0.09681      0.87652      0.64043  1.0000
  O2          0.88005      0.78911      0.47484  1.0000
  O2          0.21305      0.06977      0.80394  1.0000
  O2          0.92415      0.13192      0.14107  1.0000
  O2          0.22172      0.12996      0.36359  1.0000
  O2          0.89875      0.78198      0.02956  1.0000
  O2          0.89042      0.09228      0.69433  1.0000
  O2          0.78846      0.85648      0.86534  1.0000
  O2          0.09271      0.21644      0.52776  1.0000
  O2          0.13922      0.92031      0.19782  1.0000
  O2          0.93856      0.86524      0.25166  1.0000
  O2          0.13228      0.06508      0.58344  1.0000
  O2          0.93321      0.06188      0.91607  1.0000
  O2          0.07898      0.14083      0.75168  1.0000
  O2          0.87109      0.93798      0.08618  1.0000
  O2          0.07156      0.93096      0.41767  1.0000
  O2          0.88045      0.18149      0.97982  1.0000
  O2          0.80648      0.70319      0.31569  1.0000
  O2          0.30668      0.10798      0.64403  1.0000
  O2          0.10406      0.80009      0.48165  1.0000
  O2          0.20735      0.28319      0.81880  1.0000
  O2          0.71123      0.90726      0.15082  1.0000
  O2          0.21452      0.90763      0.35672  1.0000
  O2          0.69231      0.80513      0.02619  1.0000
  O2          0.11155      0.30553      0.68785  1.0000
  O2          0.79384      0.07642      0.85240  1.0000
  O2          0.30601      0.20513      0.52256  1.0000
  O2          0.91857      0.70621      0.18827  1.0000
  O2          0.33668      0.65241      0.25452  1.0000
  O2          0.35853      0.68031      0.58390  1.0000
  O2          0.32188      0.65282      0.92068  1.0000
  O2          0.67837      0.33375      0.74952  1.0000
  O2          0.66033      0.33200      0.08697  1.0000
  O2          0.68419      0.32555      0.41948  1.0000
  O3          0.35778      0.30232      0.97823  1.0000
  O2          0.68227      0.05098      0.30710  1.0000
  O2          0.96261      0.62661      0.63902  1.0000
  O2          0.63236      0.67288      0.47305  1.0000
  O2          0.32860      0.93607      0.80230  1.0000
  O2          0.05972      0.37994      0.13714  1.0000
  O2          0.33929      0.37793      0.36520  1.0000
  O3          0.04644      0.68288      0.02774  1.0000
  O3          0.64465      0.94573      0.69295  1.0000
  O2          0.67225      0.60758      0.86819  1.0000
  O2          0.96154      0.33221      0.53025  1.0000
  O2          0.38739      0.04993      0.19908  1.0000
  O2          0.76968      0.29797      0.01513  1.0000
  O2          0.70549      0.47171      0.34675  1.0000
  O2          0.53703      0.22327      0.67771  1.0000
  O2          0.23365      0.69792      0.51153  1.0000
  O2          0.31407      0.51632      0.84948  1.0000
  O2          0.47909      0.77754      0.18119  1.0000
  O2          0.31443      0.77665      0.32622  1.0000
  O2          0.46562      0.68896      0.99170  1.0000
  O2          0.23718      0.53325      0.65580  1.0000
  O2          0.68952      0.20502      0.82048  1.0000
  O2          0.53837      0.30511      0.49189  1.0000
  O2          0.78890      0.47350      0.15715  1.0000
  O2          0.79431      0.53078      0.02952  1.0000
  O2          0.47352      0.25327      0.36413  1.0000
  O2          0.74564      0.19939      0.69377  1.0000
  O2          0.22048      0.46793      0.52935  1.0000
  O2          0.53504      0.72564      0.86988  1.0000
  O2          0.26161      0.79021      0.19903  1.0000
  O2          0.54649      0.79260      0.30969  1.0000
  O2          0.25923      0.45551      0.97859  1.0000
  O2          0.21990      0.74807      0.64089  1.0000
  O2          0.46683      0.19133      0.80041  1.0000
  O2          0.75509      0.53713      0.47433  1.0000
  O2          0.80520      0.26555      0.13702  1.0000
  O2          0.23633      0.31303      0.90429  1.0000
  O2          0.68807      0.91346      0.23518  1.0000
  O2          0.09896      0.77022      0.56646  1.0000
  O2          0.77557      0.68094      0.40049  1.0000
  O2          0.32521      0.07016      0.72875  1.0000
  O2          0.92360      0.23956      0.06475  1.0000
  O2          0.33037      0.23475      0.43797  1.0000
  O2          0.91830      0.67607      0.10257  1.0000
  O2          0.76572      0.07620      0.76712  1.0000
  O2          0.67794      0.74679      0.94140  1.0000
  O2          0.09609      0.32296      0.60285  1.0000
  O2          0.24481      0.91641      0.27214  1.0000
  O3          0.59479      0.56144      0.00385  1.0000
  O2          0.45292      0.03474      0.32738  1.0000
  O2          0.97792      0.41120      0.65885  1.0000
  O2          0.41891      0.44389      0.49315  1.0000
  O2          0.55654      0.94984      0.82113  1.0000
  O2          0.04323      0.59253      0.15664  1.0000
  O2          0.56814      0.59281      0.34513  1.0000
  O3          0.02611      0.42498      0.00236  1.0000
  O3          0.40852      0.96714      0.66671  1.0000
  O2          0.44426      0.39140      0.85012  1.0000
  O2          0.97489      0.56195      0.51088  1.0000
  O2          0.60377      0.03745      0.17987  1.0000
  O2          0.59477      0.17294      0.25354  1.0000
  O2          0.83871      0.41686      0.58504  1.0000
  O3          0.59803      0.39570      0.91777  1.0000
  O3          0.40408      0.79935      0.75344  1.0000
  O3          0.19413      0.59239      0.08828  1.0000
  O2          0.42516      0.58632      0.41926  1.0000
  F           0.46511      0.91248      0.25297  1.0000
  F           0.09394      0.54509      0.58419  1.0000
  F           0.47277      0.50952      0.93042  1.0000
  F           0.53046      0.03887      0.74002  1.0000
  F           0.95455      0.47635      0.07601  1.0000
  F           0.55472      0.45508      0.41869  1.0000
