data_cif

_audit_creation_method             'generated by GULP'

_symmetry_space_group_name_H-M     'P 1'
_symmetry_Int_Tables_number        1
_symmetry_cell_setting             triclinic

_cell_length_a                       12.2102
_cell_length_b                       12.2107
_cell_length_c                       30.0453
_cell_angle_alpha                   90.4863
_cell_angle_beta                    89.2089
_cell_angle_gamma                  119.9275

loop_
_atom_site_label
_atom_site_fract_x
_atom_site_fract_y
_atom_site_fract_z
_atom_site_occupancy
  Ge          0.69960      0.37570      0.03389  1.0000
  Ge          0.65269      0.34887      0.36989  1.0000
  Ge          0.70151      0.32398      0.70040  1.0000
  Ge          0.32300      0.63942      0.52669  1.0000
  Ge          0.39366      0.68634      0.86123  1.0000
  Ge          0.35494      0.72255      0.18961  1.0000
  Ge          0.39820      0.71084      0.29432  1.0000
  Si          0.31970      0.63138      0.96360  1.0000
  Ge          0.33353      0.70550      0.63159  1.0000
  Ge          0.63146      0.31042      0.80498  1.0000
  Ge          0.71548      0.39632      0.46980  1.0000
  Ge          0.71951      0.32090      0.13756  1.0000
  Ge          0.52317      0.42059      0.97185  1.0000
  Ge          0.59875      0.12479      0.30621  1.0000
  Ge          0.92558      0.50150      0.63730  1.0000
  Ge          0.50007      0.59120      0.46146  1.0000
  Ge          0.43451      0.90422      0.79591  1.0000
  Ge          0.13739      0.54561      0.12453  1.0000
  Ge          0.44635      0.53322      0.35704  1.0000
  Ge          0.09456      0.57776      0.02590  1.0000
  Ge          0.50473      0.92990      0.69645  1.0000
  Ge          0.58214      0.48314      0.87194  1.0000
  Ge          0.93247      0.44837      0.53726  1.0000
  Ge          0.54457      0.10232      0.20577  1.0000
  Ge          0.30867      0.39848      0.84583  1.0000
  Si          0.64037      0.92577      0.17842  1.0000
  Ge          0.11973      0.72295      0.51172  1.0000
  Ge          0.74208      0.61861      0.34332  1.0000
  Ge          0.41969      0.12234      0.67807  1.0000
  Ge          0.90305      0.29753      0.00978  1.0000
  Si          0.42538      0.30478      0.47493  1.0000
  Ge          0.92004      0.61756      0.14258  1.0000
  Si          0.72193      0.11240      0.81081  1.0000
  Ge          0.60404      0.71550      0.97969  1.0000
  Si          0.13539      0.42080      0.64535  1.0000
  Si          0.30821      0.90505      0.30991  1.0000
  Si          0.24770      0.34712      0.94880  1.0000
  Si          0.68403      0.92639      0.28114  1.0000
  Si          0.12007      0.77919      0.61493  1.0000
  Si          0.78392      0.67827      0.44628  1.0000
  Si          0.34993      0.09978      0.78067  1.0000
  Si          0.93925      0.26308      0.11194  1.0000
  Si          0.36806      0.25143      0.37273  1.0000
  Si          0.90783      0.66904      0.04064  1.0000
  Si          0.78156      0.11499      0.70917  1.0000
  Si          0.68023      0.76387      0.87709  1.0000
  Si          0.11720      0.35376      0.54357  1.0000
  Si          0.26688      0.92339      0.20784  1.0000
  Si          0.97223      0.12185      0.95933  1.0000
  Si          0.90698      0.87292      0.29262  1.0000
  Si          0.17721      0.05593      0.62616  1.0000
  Si          0.05459      0.90185      0.45979  1.0000
  Si          0.13082      0.15688      0.79258  1.0000
  Si          0.88374      0.98994      0.12645  1.0000
  Si          0.13609      0.98273      0.35892  1.0000
  Si          0.85583      0.89272      0.02617  1.0000
  Si          0.05742      0.17011      0.69234  1.0000
  Si          0.89632      0.03794      0.85886  1.0000
  Si          0.17423      0.13467      0.52560  1.0000
  Si          0.99134      0.86869      0.19289  1.0000
  O2          0.94152      0.00218      0.99056  1.0000
  O2          0.02277      0.95672      0.32598  1.0000
  O2          0.08764      0.09037      0.65632  1.0000
  O2          0.08924      0.02203      0.49167  1.0000
  O2          0.00733      0.07055      0.82297  1.0000
  O2          0.96603      0.95118      0.15701  1.0000
  O1          0.36034      0.58102      0.32561  1.0000
  O1          0.45896      0.79379      0.66249  1.0000
  O3          0.22958      0.66433      0.99000  1.0000
  O1          0.66997      0.42713      0.84089  1.0000
  O1          0.60232      0.24150      0.17316  1.0000
  O1          0.78953      0.35989      0.50783  1.0000
  O1          0.55882      0.33861      0.00927  1.0000
  O1          0.80831      0.46462      0.67571  1.0000
  O1          0.68302      0.23700      0.34307  1.0000
  O1          0.45617      0.67434      0.49549  1.0000
  O1          0.26982      0.59404      0.15638  1.0000
  O1          0.35501      0.78223      0.83232  1.0000
  O2          0.11626      0.23241      0.96929  1.0000
  O2          0.80429      0.91803      0.30002  1.0000
  O2          0.13116      0.90866      0.63529  1.0000
  O2          0.90566      0.80248      0.46741  1.0000
  O2          0.22778      0.10518      0.80072  1.0000
  O2          0.94331      0.14032      0.13117  1.0000
  O2          0.23750      0.13069      0.35587  1.0000
  O2          0.89178      0.78301      0.02007  1.0000
  O2          0.90884      0.11981      0.69045  1.0000
  O2          0.80420      0.88795      0.85717  1.0000
  O2          0.11904      0.22926      0.52574  1.0000
  O2          0.14010      0.91627      0.18914  1.0000
  O2          0.95802      0.89854      0.24199  1.0000
  O2          0.16091      0.07759      0.57453  1.0000
  O2          0.95602      0.08038      0.90768  1.0000
  O2          0.09275      0.14488      0.74096  1.0000
  O2          0.88957      0.95087      0.07566  1.0000
  O2          0.08189      0.94759      0.40881  1.0000
  O3          0.88338      0.17755      0.97234  1.0000
  O3          0.84586      0.72722      0.30414  1.0000
  O3          0.32058      0.13898      0.64006  1.0000
  O3          0.13318      0.83594      0.47290  1.0000
  O3          0.19609      0.30067      0.80687  1.0000
  O2          0.73855      0.91821      0.14303  1.0000
  O2          0.20382      0.90206      0.34527  1.0000
  O3          0.70794      0.83046      0.01728  1.0000
  O2          0.13368      0.31986      0.68118  1.0000
  O2          0.81779      0.10809      0.84716  1.0000
  O2          0.32115      0.20838      0.51091  1.0000
  O3          0.91492      0.72194      0.18230  1.0000
  O1          0.36181      0.66350      0.24030  1.0000
  O1          0.37719      0.71289      0.57639  1.0000
  O3          0.31920      0.66373      0.91174  1.0000
  O1          0.66924      0.36487      0.75097  1.0000
  O1          0.66370      0.30110      0.08373  1.0000
  O1          0.73537      0.35390      0.41741  1.0000
  O3          0.35967      0.32512      0.96457  1.0000
  O3          0.69588      0.05489      0.29684  1.0000
  O3          0.98466      0.66356      0.62863  1.0000
  O3          0.66097      0.69241      0.45308  1.0000
  O3          0.32976      0.96184      0.78948  1.0000
  O3          0.07742      0.38229      0.11870  1.0000
  O3          0.36786      0.37053      0.35025  1.0000
  O3          0.02422      0.67108      0.01479  1.0000
  O3          0.66865      0.99582      0.68557  1.0000
  O3          0.68714      0.64482      0.85872  1.0000
  O3          0.99394      0.34681      0.52392  1.0000
  O3          0.38420      0.04932      0.19006  1.0000
  O1          0.77306      0.31347      0.00164  1.0000
  O1          0.73585      0.47884      0.33319  1.0000
  O1          0.56584      0.25335      0.66928  1.0000
  O1          0.24772      0.70465      0.49886  1.0000
  O1          0.32937      0.54464      0.83349  1.0000
  O3          0.50530      0.80535      0.16629  1.0000
  O3          0.30141      0.77042      0.31164  1.0000
  O3          0.46508      0.71908      0.97993  1.0000
  O3          0.27032      0.54535      0.64618  1.0000
  O3          0.72954      0.24557      0.81507  1.0000
  O3          0.54986      0.29700      0.48006  1.0000
  O1          0.78027      0.48233      0.14780  1.0000
  O3          0.77611      0.54061      0.03261  1.0000
  O3          0.48624      0.24020      0.35702  1.0000
  O3          0.78845      0.24566      0.69673  1.0000
  O3          0.24491      0.47474      0.52598  1.0000
  O3          0.55784      0.76788      0.85976  1.0000
  O3          0.26788      0.79963      0.18891  1.0000
  O3          0.55743      0.81166      0.30272  1.0000
  O2          0.27879      0.48249      0.96929  1.0000
  O3          0.22023      0.75076      0.63835  1.0000
  O3          0.47339      0.19344      0.80826  1.0000
  O3          0.75855      0.55639      0.47356  1.0000
  O3          0.84413      0.29019      0.14077  1.0000
  O3          0.22866      0.33733      0.89606  1.0000
  O2          0.68665      0.90931      0.22745  1.0000
  O3          0.13981      0.80249      0.56221  1.0000
  O3          0.81624      0.68059      0.39420  1.0000
  O3          0.35404      0.13272      0.72890  1.0000
  O3          0.89880      0.22856      0.06092  1.0000
  O2          0.35820      0.25677      0.42693  1.0000
  O3          0.93715      0.69699      0.09301  1.0000
  O2          0.77517      0.09544      0.76291  1.0000
  O3          0.68908      0.77383      0.93058  1.0000
  O2          0.11048      0.34871      0.59775  1.0000
  O2          0.25922      0.92369      0.26222  1.0000
  O1          0.57207      0.56867      0.99454  1.0000
  O3          0.44664      0.00877      0.32417  1.0000
  O3          0.03124      0.45858      0.65866  1.0000
  O3          0.45870      0.44736      0.48559  1.0000
  O3          0.57985      0.00347      0.82075  1.0000
  O1          0.04142      0.58993      0.15297  1.0000
  O1          0.59802      0.61023      0.33621  1.0000
  O1          0.03745      0.43405      0.99701  1.0000
  O1          0.41966      0.98578      0.66585  1.0000
  O1          0.44534      0.39549      0.83872  1.0000
  O1          0.98147      0.58606      0.50419  1.0000
  O3          0.63966      0.05445      0.17258  1.0000
  O1          0.59374      0.18520      0.25568  1.0000
  O1          0.85781      0.42529      0.58897  1.0000
  O1          0.59950      0.42641      0.92296  1.0000
  O1          0.44624      0.84435      0.74577  1.0000
  O1          0.18683      0.61378      0.07349  1.0000
  O1          0.43023      0.57147      0.41073  1.0000
  F           0.48548      0.94734      0.23648  1.0000
  F           0.09431      0.55785      0.56862  1.0000
  F           0.47840      0.54004      0.90441  1.0000
  F           0.55110      0.08440      0.73401  1.0000
  F           0.94612      0.47689      0.06747  1.0000
  F           0.59281      0.44855      0.40016  1.0000
