data_cif

_audit_creation_method             'generated by GULP'

_symmetry_space_group_name_H-M     'P 1'
_symmetry_Int_Tables_number        1
_symmetry_cell_setting             triclinic

_cell_length_a                       12.2140
_cell_length_b                       12.2155
_cell_length_c                       29.9994
_cell_angle_alpha                   90.0072
_cell_angle_beta                    89.9399
_cell_angle_gamma                  120.0146

loop_
_atom_site_label
_atom_site_fract_x
_atom_site_fract_y
_atom_site_fract_z
_atom_site_occupancy
  Ge          0.69960      0.37570      0.03389  1.0000
  Ge          0.67826      0.34604      0.36345  1.0000
  Ge          0.71195      0.35590      0.69843  1.0000
  Ge          0.36032      0.67465      0.53004  1.0000
  Ge          0.38833      0.70096      0.86329  1.0000
  Ge          0.35519      0.70174      0.19688  1.0000
  Ge          0.42084      0.72434      0.29599  1.0000
  Ge          0.34133      0.63455      0.96221  1.0000
  Ge          0.33071      0.71489      0.62891  1.0000
  Ge          0.64281      0.32102      0.79745  1.0000
  Ge          0.72036      0.41639      0.46240  1.0000
  Ge          0.73819      0.34099      0.13256  1.0000
  Ge          0.52724      0.42698      0.96863  1.0000
  Si          0.63198      0.12570      0.30034  1.0000
  Ge          0.93680      0.52727      0.63259  1.0000
  Ge          0.53292      0.62258      0.46485  1.0000
  Ge          0.44002      0.92556      0.79708  1.0000
  Ge          0.13146      0.53078      0.13096  1.0000
  Ge          0.48111      0.56214      0.35997  1.0000
  Ge          0.11460      0.57614      0.02562  1.0000
  Ge          0.49814      0.94324      0.69116  1.0000
  Ge          0.58634      0.48408      0.86328  1.0000
  Ge          0.94522      0.47676      0.52718  1.0000
  Ge          0.57086      0.11362      0.19647  1.0000
  Si          0.29932      0.41603      0.85325  1.0000
  Si          0.64107      0.89764      0.18497  1.0000
  Si          0.16410      0.76419      0.51968  1.0000
  Si          0.76858      0.63115      0.35168  1.0000
  Si          0.42738      0.16077      0.68418  1.0000
  Si          0.89680      0.28892      0.02022  1.0000
  Ge          0.44682      0.32874      0.48469  1.0000
  Ge          0.92381      0.61608      0.15100  1.0000
  Si          0.72682      0.13231      0.81662  1.0000
  Ge          0.61361      0.72165      0.98589  1.0000
  Ge          0.14552      0.44169      0.65075  1.0000
  Ge          0.34269      0.91873      0.31763  1.0000
  Si          0.24504      0.35078      0.95525  1.0000
  Ge          0.70635      0.91839      0.28825  1.0000
  Si          0.14366      0.81119      0.62191  1.0000
  Si          0.81621      0.69911      0.45400  1.0000
  Ge          0.35920      0.13309      0.78748  1.0000
  Si          0.92559      0.24655      0.12214  1.0000
  Si          0.39541      0.27813      0.38199  1.0000
  Si          0.91540      0.66194      0.04794  1.0000
  Si          0.78103      0.13984      0.71451  1.0000
  Si          0.67095      0.76996      0.88292  1.0000
  Si          0.14490      0.39066      0.54761  1.0000
  Si          0.28494      0.91648      0.21517  1.0000
  Si          0.97410      0.12059      0.96844  1.0000
  Si          0.94084      0.88258      0.30276  1.0000
  Si          0.17903      0.07971      0.63491  1.0000
  Si          0.08431      0.93187      0.46869  1.0000
  Si          0.12490      0.16808      0.80280  1.0000
  Si          0.88863      0.97780      0.13454  1.0000
  Si          0.17682      0.00644      0.36847  1.0000
  Si          0.87017      0.88760      0.03427  1.0000
  Si          0.05487      0.18704      0.70178  1.0000
  Si          0.88753      0.04299      0.86731  1.0000
  Si          0.18979      0.16493      0.53438  1.0000
  Si          0.01311      0.87093      0.20144  1.0000
  O2          0.94754      0.00145      0.99897  1.0000
  O2          0.06210      0.96341      0.33373  1.0000
  O2          0.09024      0.10623      0.66774  1.0000
  O2          0.10952      0.04830      0.50049  1.0000
  O2          0.00548      0.08419      0.83444  1.0000
  O2          0.97712      0.95018      0.16694  1.0000
  O1          0.38724      0.58715      0.32665  1.0000
  O1          0.46865      0.82294      0.65799  1.0000
  O1          0.23340      0.66490      0.99140  1.0000
  O1          0.68003      0.45292      0.83194  1.0000
  O1          0.60608      0.23954      0.16578  1.0000
  O1          0.82592      0.38674      0.49342  1.0000
  O1          0.57613      0.33953      0.99907  1.0000
  O1          0.79912      0.47685      0.66254  1.0000
  O3          0.71030      0.25828      0.32613  1.0000
  O1          0.48032      0.70959      0.49365  1.0000
  O1          0.27173      0.58447      0.15932  1.0000
  O1          0.35759      0.78385      0.82467  1.0000
  O2          0.12299      0.21918      0.97113  1.0000
  O3          0.84933      0.93860      0.30838  1.0000
  O2          0.13138      0.93121      0.63834  1.0000
  O2          0.93560      0.83192      0.47043  1.0000
  O3          0.21423      0.10980      0.80667  1.0000
  O2          0.93928      0.12688      0.13792  1.0000
  O2          0.27164      0.15553      0.36055  1.0000
  O2          0.91462      0.78473      0.02625  1.0000
  O2          0.90676      0.14159      0.69519  1.0000
  O2          0.79622      0.89302      0.86207  1.0000
  O2          0.14375      0.26647      0.52635  1.0000
  O2          0.16170      0.91836      0.19475  1.0000
  O2          0.98567      0.89705      0.25157  1.0000
  O2          0.15992      0.11330      0.58481  1.0000
  O2          0.93562      0.07707      0.91777  1.0000
  O2          0.07874      0.15958      0.75207  1.0000
  O2          0.90441      0.94275      0.08421  1.0000
  O2          0.12305      0.98153      0.41855  1.0000
  O2          0.89529      0.18665      0.98503  1.0000
  O2          0.86645      0.73358      0.31584  1.0000
  O2          0.32741      0.16007      0.64749  1.0000
  O2          0.16304      0.86476      0.48424  1.0000
  O2          0.20191      0.31575      0.81698  1.0000
  O2          0.74076      0.89979      0.14790  1.0000
  O3          0.24943      0.93130      0.35915  1.0000
  O3          0.72257      0.82326      0.02545  1.0000
  O3          0.13738      0.33314      0.69058  1.0000
  O2          0.81591      0.11843      0.85372  1.0000
  O3          0.33679      0.22888      0.52429  1.0000
  O3          0.93231      0.72460      0.19079  1.0000
  O1          0.33637      0.63845      0.24874  1.0000
  O1          0.41922      0.71735      0.58222  1.0000
  O1          0.34124      0.71893      0.91470  1.0000
  O1          0.72718      0.41261      0.75124  1.0000
  O1          0.64497      0.33307      0.08670  1.0000
  O1          0.72418      0.33150      0.41536  1.0000
  O3          0.36444      0.35039      0.97726  1.0000
  O3          0.70182      0.04669      0.31104  1.0000
  O3          0.02225      0.68956      0.64225  1.0000
  O3          0.69510      0.69926      0.47460  1.0000
  O1          0.36049      0.00425      0.80948  1.0000
  O3          0.04723      0.36891      0.14185  1.0000
  O3          0.38591      0.40064      0.37312  1.0000
  O3          0.04648      0.67080      0.03678  1.0000
  O3          0.66142      0.00968      0.70168  1.0000
  O3          0.68077      0.64749      0.87374  1.0000
  O3          0.01301      0.38172      0.53838  1.0000
  O3          0.40759      0.04804      0.20517  1.0000
  O3          0.76105      0.27762      0.01857  1.0000
  O3          0.77832      0.50566      0.34852  1.0000
  O3          0.55287      0.29677      0.68287  1.0000
  O3          0.29898      0.77398      0.51619  1.0000
  O3          0.28918      0.54079      0.84946  1.0000
  O3          0.51554      0.76224      0.18258  1.0000
  O1          0.34702      0.78556      0.33045  1.0000
  O1          0.47387      0.71478      0.99762  1.0000
  O1          0.27666      0.58138      0.66392  1.0000
  O3          0.71745      0.25352      0.82972  1.0000
  O1          0.58669      0.33751      0.49755  1.0000
  O1          0.79462      0.47712      0.16605  1.0000
  O3          0.80164      0.53734      0.02565  1.0000
  O3          0.51758      0.29023      0.35720  1.0000
  O3          0.77219      0.25394      0.69182  1.0000
  O3          0.25568      0.51310      0.52314  1.0000
  O3          0.55011      0.75920      0.85777  1.0000
  O3          0.29615      0.80498      0.19120  1.0000
  O1          0.58602      0.78089      0.30767  1.0000
  O3          0.23233      0.46698      0.97235  1.0000
  O3          0.27126      0.82302      0.64009  1.0000
  O1          0.47893      0.26915      0.80869  1.0000
  O3          0.82885      0.58409      0.47242  1.0000
  O3          0.79863      0.23378      0.14167  1.0000
  O2          0.25195      0.34534      0.90097  1.0000
  O3          0.71995      0.92450      0.23049  1.0000
  O2          0.13851      0.80928      0.56747  1.0000
  O2          0.81407      0.70177      0.39952  1.0000
  O3          0.34696      0.13007      0.72949  1.0000
  O2          0.92801      0.24766      0.06774  1.0000
  O3          0.38889      0.24813      0.43450  1.0000
  O3          0.89915      0.67256      0.10080  1.0000
  O2          0.79726      0.15548      0.76841  1.0000
  O3          0.67575      0.79900      0.93541  1.0000
  O3          0.16703      0.38397      0.60027  1.0000
  O3          0.26001      0.89597      0.26812  1.0000
  O1          0.60367      0.57666      0.99106  1.0000
  O3          0.48911      0.05565      0.31965  1.0000
  O1          0.00881      0.44904      0.65458  1.0000
  O1          0.45503      0.47342      0.48785  1.0000
  O3          0.59319      0.00277      0.81801  1.0000
  O1          0.06147      0.61024      0.15366  1.0000
  O3          0.62619      0.59038      0.33901  1.0000
  O3          0.99725      0.43012      0.00583  1.0000
  O3          0.47152      0.06159      0.67102  1.0000
  O3          0.44206      0.45567      0.84140  1.0000
  O3          0.06152      0.62247      0.50672  1.0000
  O3          0.59868      0.99906      0.17346  1.0000
  O3          0.64307      0.15656      0.24833  1.0000
  O1          0.89271      0.49723      0.57823  1.0000
  O1          0.56073      0.41249      0.91471  1.0000
  O1          0.42401      0.89017      0.74188  1.0000
  O1          0.17045      0.55740      0.07616  1.0000
  O1          0.50506      0.63809      0.41045  1.0000
  F           0.48207      0.87497      0.25991  1.0000
  F           0.18099      0.61899      0.59411  1.0000
  F           0.43993      0.58036      0.92842  1.0000
  F           0.57695      0.17434      0.75934  1.0000
  F           0.88497      0.43746      0.09536  1.0000
  F           0.62380      0.46916      0.42731  1.0000
