data_cif

_audit_creation_method             'generated by GULP'

_symmetry_space_group_name_H-M     'P 1'
_symmetry_Int_Tables_number        1
_symmetry_cell_setting             triclinic

_cell_length_a                       12.2251
_cell_length_b                       12.2307
_cell_length_c                       30.0414
_cell_angle_alpha                   90.8269
_cell_angle_beta                    89.6273
_cell_angle_gamma                  120.1072

loop_
_atom_site_label
_atom_site_fract_x
_atom_site_fract_y
_atom_site_fract_z
_atom_site_occupancy
  Ge          0.69960      0.37570      0.03389  1.0000
  Ge          0.63429      0.32227      0.36785  1.0000
  Ge          0.67996      0.30461      0.70278  1.0000
  Ge          0.31094      0.62815      0.53662  1.0000
  Ge          0.37702      0.68415      0.87165  1.0000
  Ge          0.34246      0.71057      0.20545  1.0000
  Ge          0.38312      0.68292      0.30531  1.0000
  Si          0.31512      0.62410      0.97392  1.0000
  Ge          0.30554      0.68894      0.64147  1.0000
  Ge          0.62095      0.30918      0.80779  1.0000
  Ge          0.69540      0.38349      0.47260  1.0000
  Ge          0.71078      0.32741      0.13816  1.0000
  Ge          0.51967      0.41670      0.97227  1.0000
  Ge          0.58379      0.09342      0.30507  1.0000
  Ge          0.89840      0.48161      0.63769  1.0000
  Ge          0.48878      0.58378      0.47211  1.0000
  Ge          0.41854      0.90184      0.80748  1.0000
  Ge          0.12134      0.53896      0.13890  1.0000
  Ge          0.43945      0.51938      0.37203  1.0000
  Ge          0.09164      0.56887      0.03775  1.0000
  Ge          0.47899      0.91227      0.70767  1.0000
  Ge          0.57020      0.48408      0.87296  1.0000
  Ge          0.91775      0.43376      0.53804  1.0000
  Ge          0.53279      0.10187      0.20077  1.0000
  Ge          0.29305      0.39857      0.85094  1.0000
  Ge          0.61613      0.89252      0.18315  1.0000
  Ge          0.10861      0.70969      0.51727  1.0000
  Ge          0.71630      0.60615      0.34982  1.0000
  Ge          0.39378      0.10135      0.68507  1.0000
  Ge          0.90131      0.29228      0.01754  1.0000
  Si          0.40878      0.29487      0.48320  1.0000
  Si          0.90519      0.61220      0.14797  1.0000
  Si          0.70904      0.11158      0.81817  1.0000
  Ge          0.60235      0.71051      0.98527  1.0000
  Si          0.10719      0.40198      0.65017  1.0000
  Si          0.29594      0.88298      0.31526  1.0000
  Si          0.24212      0.34166      0.95369  1.0000
  Si          0.66884      0.89674      0.28612  1.0000
  Si          0.09409      0.76093      0.62016  1.0000
  Si          0.76798      0.66794      0.45287  1.0000
  Si          0.33525      0.09656      0.78814  1.0000
  Si          0.92119      0.25369      0.12034  1.0000
  Si          0.34707      0.24108      0.38144  1.0000
  Si          0.90778      0.66434      0.04605  1.0000
  Si          0.75813      0.09651      0.71626  1.0000
  Si          0.66639      0.76374      0.88256  1.0000
  Si          0.10187      0.34037      0.54843  1.0000
  Si          0.24957      0.89977      0.21321  1.0000
  Si          0.96799      0.11624      0.96541  1.0000
  Si          0.89365      0.85107      0.29882  1.0000
  Si          0.15141      0.03746      0.63202  1.0000
  Si          0.04434      0.88734      0.46530  1.0000
  Si          0.11600      0.15384      0.79837  1.0000
  Si          0.87051      0.98053      0.13222  1.0000
  Si          0.12625      0.96520      0.36463  1.0000
  Si          0.85801      0.88969      0.03230  1.0000
  Si          0.03342      0.15352      0.69820  1.0000
  Si          0.88419      0.03714      0.86470  1.0000
  Si          0.15905      0.12148      0.53158  1.0000
  Si          0.98101      0.86108      0.19823  1.0000
  O2          0.93937      0.99588      0.99558  1.0000
  O2          0.01362      0.93717      0.33072  1.0000
  O2          0.06328      0.07378      0.66195  1.0000
  O2          0.07892      0.01034      0.49599  1.0000
  O2          0.99298      0.06760      0.82849  1.0000
  O2          0.95408      0.94675      0.16499  1.0000
  O1          0.34820      0.56714      0.34098  1.0000
  O1          0.42637      0.77108      0.67558  1.0000
  O3          0.23127      0.65580      0.00414  1.0000
  O1          0.65941      0.43359      0.84032  1.0000
  O1          0.58575      0.24085      0.17214  1.0000
  O1          0.77900      0.34472      0.50521  1.0000
  O1          0.55983      0.33403      0.00764  1.0000
  O1          0.77885      0.44104      0.67491  1.0000
  O1          0.66806      0.21858      0.33970  1.0000
  O1          0.44917      0.66378      0.50978  1.0000
  O1          0.23860      0.57377      0.17421  1.0000
  O1          0.34015      0.78520      0.84544  1.0000
  O2          0.11346      0.22577      0.97464  1.0000
  O2          0.79103      0.89589      0.30752  1.0000
  O2          0.10129      0.88919      0.64024  1.0000
  O2          0.89604      0.78767      0.47344  1.0000
  O2          0.21575      0.10655      0.80787  1.0000
  O2          0.91789      0.12837      0.14058  1.0000
  O2          0.22396      0.11403      0.36325  1.0000
  O2          0.90027      0.78443      0.02780  1.0000
  O2          0.88349      0.09715      0.69801  1.0000
  O2          0.78732      0.88813      0.86199  1.0000
  O2          0.10488      0.21655      0.53031  1.0000
  O2          0.13032      0.91296      0.19693  1.0000
  O2          0.93927      0.87432      0.24781  1.0000
  O2          0.13898      0.06241      0.58032  1.0000
  O2          0.94667      0.07589      0.91347  1.0000
  O2          0.07719      0.13581      0.74654  1.0000
  O2          0.89390      0.95411      0.08124  1.0000
  O2          0.06952      0.92702      0.41388  1.0000
  O3          0.88071      0.17148      0.98002  1.0000
  O3          0.83068      0.70631      0.31125  1.0000
  O3          0.29470      0.11731      0.64683  1.0000
  O3          0.12511      0.82487      0.47924  1.0000
  O3          0.17859      0.29856      0.81205  1.0000
  O3          0.72478      0.89751      0.14390  1.0000
  O2          0.19735      0.88842      0.35095  1.0000
  O3          0.70932      0.82234      0.02365  1.0000
  O2          0.10409      0.30195      0.68629  1.0000
  O2          0.80870      0.11117      0.85406  1.0000
  O2          0.30800      0.19732      0.51942  1.0000
  O2          0.90551      0.71362      0.18375  1.0000
  O1          0.34044      0.62679      0.25219  1.0000
  O1          0.35579      0.70193      0.58707  1.0000
  O3          0.30617      0.65789      0.92270  1.0000
  O1          0.65537      0.35378      0.75306  1.0000
  O1          0.65520      0.30658      0.08498  1.0000
  O1          0.70775      0.34730      0.41777  1.0000
  O3          0.35585      0.31897      0.96632  1.0000
  O3          0.68388      0.03309      0.29563  1.0000
  O3          0.95675      0.64380      0.63051  1.0000
  O3          0.65110      0.68771      0.46444  1.0000
  O3          0.31505      0.96031      0.79975  1.0000
  O3          0.05497      0.37316      0.13020  1.0000
  O3          0.34052      0.35554      0.36010  1.0000
  O3          0.02839      0.66778      0.02441  1.0000
  O3          0.64171      0.97379      0.69509  1.0000
  O3          0.67177      0.64655      0.86134  1.0000
  O3          0.98117      0.33391      0.52610  1.0000
  O3          0.37055      0.01967      0.19190  1.0000
  O1          0.77236      0.30779      0.00521  1.0000
  O1          0.70008      0.46014      0.33834  1.0000
  O1          0.54025      0.22833      0.67355  1.0000
  O1          0.23754      0.69229      0.50678  1.0000
  O1          0.31001      0.54456      0.84176  1.0000
  O1          0.47620      0.76210      0.17040  1.0000
  O3          0.28538      0.74903      0.31824  1.0000
  O3          0.46345      0.71338      0.98787  1.0000
  O3          0.24123      0.52721      0.65330  1.0000
  O3          0.71843      0.24587      0.82067  1.0000
  O3          0.53384      0.28591      0.48544  1.0000
  O3          0.76960      0.48629      0.15150  1.0000
  O3          0.77767      0.54048      0.03170  1.0000
  O3          0.46941      0.23410      0.36582  1.0000
  O3          0.76511      0.22498      0.70088  1.0000
  O3          0.23170      0.46304      0.53425  1.0000
  O3          0.54132      0.76754      0.86861  1.0000
  O3          0.23589      0.77088      0.19545  1.0000
  O3          0.54383      0.79640      0.31107  1.0000
  O2          0.27715      0.47571      0.97673  1.0000
  O3          0.18981      0.73125      0.64635  1.0000
  O3          0.46252      0.19472      0.81361  1.0000
  O3          0.73859      0.54161      0.47815  1.0000
  O3          0.81609      0.27427      0.14604  1.0000
  O3          0.21704      0.33500      0.90125  1.0000
  O3          0.67526      0.87416      0.23363  1.0000
  O3          0.12291      0.78734      0.56806  1.0000
  O3          0.79428      0.66824      0.40045  1.0000
  O3          0.33420      0.12015      0.73581  1.0000
  O3          0.88777      0.21967      0.06851  1.0000
  O2          0.33794      0.24458      0.43552  1.0000
  O2          0.92300      0.67860      0.10011  1.0000
  O2          0.75677      0.08771      0.77034  1.0000
  O3          0.68317      0.77136      0.93593  1.0000
  O2          0.08672      0.33057      0.60236  1.0000
  O2          0.25300      0.90963      0.26750  1.0000
  O1          0.57176      0.56291      0.99753  1.0000
  O3          0.43864      0.98825      0.32797  1.0000
  O3          0.00011      0.43677      0.66127  1.0000
  O3          0.44418      0.43676      0.49505  1.0000
  O3          0.56727      0.00577      0.83000  1.0000
  O3          0.00829      0.57487      0.15997  1.0000
  O1          0.57931      0.60608      0.34026  1.0000
  O1          0.03975      0.42683      0.00704  1.0000
  O1          0.39003      0.96199      0.67566  1.0000
  O1          0.43002      0.39841      0.84103  1.0000
  O1          0.97054      0.57339      0.50664  1.0000
  O1          0.61135      0.03065      0.17821  1.0000
  O1          0.56579      0.14871      0.25520  1.0000
  O1          0.83543      0.40805      0.58807  1.0000
  O1          0.59184      0.42461      0.92255  1.0000
  O1          0.42540      0.83432      0.75826  1.0000
  O1          0.17365      0.60372      0.08745  1.0000
  O1          0.41507      0.57354      0.42302  1.0000
  F           0.44387      0.86686      0.23907  1.0000
  F           0.07430      0.54187      0.57342  1.0000
  F           0.46817      0.53797      0.90922  1.0000
  F           0.53064      0.07140      0.74159  1.0000
  F           0.93102      0.46321      0.07203  1.0000
  F           0.54955      0.46921      0.40618  1.0000
