data_cif

_audit_creation_method             'generated by GULP'

_symmetry_space_group_name_H-M     'P 1'
_symmetry_Int_Tables_number        1
_symmetry_cell_setting             triclinic

_cell_length_a                       12.2363
_cell_length_b                       12.2158
_cell_length_c                       29.9885
_cell_angle_alpha                   90.1113
_cell_angle_beta                    90.7655
_cell_angle_gamma                  120.0455

loop_
_atom_site_label
_atom_site_fract_x
_atom_site_fract_y
_atom_site_fract_z
_atom_site_occupancy
  Ge          0.69960      0.37570      0.03389  1.0000
  Ge          0.61391      0.29842      0.36600  1.0000
  Ge          0.66337      0.27016      0.70498  1.0000
  Ge          0.29683      0.59577      0.53638  1.0000
  Ge          0.38125      0.66922      0.87415  1.0000
  Ge          0.31633      0.68679      0.20492  1.0000
  Ge          0.36221      0.66113      0.30491  1.0000
  Si          0.31312      0.63230      0.97189  1.0000
  Ge          0.28276      0.65025      0.64031  1.0000
  Ge          0.63342      0.30626      0.80426  1.0000
  Ge          0.68298      0.35545      0.47094  1.0000
  Ge          0.67150      0.30640      0.13280  1.0000
  Si          0.52554      0.42230      0.97080  1.0000
  Ge          0.56053      0.07213      0.30157  1.0000
  Ge          0.87255      0.43897      0.63737  1.0000
  Ge          0.47671      0.55720      0.47272  1.0000
  Ge          0.43378      0.89538      0.81238  1.0000
  Ge          0.08723      0.51870      0.14060  1.0000
  Ge          0.42026      0.49711      0.37238  1.0000
  Ge          0.09446      0.57465      0.03488  1.0000
  Ge          0.46704      0.87449      0.70626  1.0000
  Ge          0.58172      0.48173      0.86767  1.0000
  Ge          0.90536      0.40079      0.53696  1.0000
  Ge          0.50356      0.07956      0.19682  1.0000
  Ge          0.28844      0.39651      0.84757  1.0000
  Ge          0.58717      0.86874      0.18108  1.0000
  Ge          0.09301      0.67623      0.51584  1.0000
  Ge          0.69500      0.58332      0.34962  1.0000
  Si          0.38937      0.08188      0.68644  1.0000
  Ge          0.88193      0.28230      0.01612  1.0000
  Si          0.39738      0.26811      0.48260  1.0000
  Si          0.87100      0.58977      0.14728  1.0000
  Si          0.72355      0.11254      0.81815  1.0000
  Ge          0.59661      0.70708      0.98204  1.0000
  Si          0.08838      0.36648      0.64965  1.0000
  Si          0.27399      0.86103      0.31335  1.0000
  Ge          0.24350      0.34792      0.95272  1.0000
  Si          0.64593      0.87519      0.28431  1.0000
  Si          0.07233      0.72216      0.61860  1.0000
  Si          0.75412      0.64138      0.45286  1.0000
  Si          0.34759      0.09142      0.78864  1.0000
  Si          0.88365      0.23267      0.11896  1.0000
  Si          0.32829      0.21802      0.38089  1.0000
  Si          0.89204      0.65603      0.04533  1.0000
  Ge          0.75632      0.08023      0.71487  1.0000
  Si          0.66556      0.76664      0.87946  1.0000
  Si          0.08876      0.30735      0.54820  1.0000
  Si          0.22141      0.87471      0.21096  1.0000
  Si          0.97173      0.11688      0.96696  1.0000
  Si          0.87113      0.82931      0.29875  1.0000
  Si          0.14200      0.00052      0.63260  1.0000
  Si          0.03183      0.85910      0.46505  1.0000
  Si          0.12281      0.14079      0.79771  1.0000
  Si          0.84271      0.96339      0.13274  1.0000
  Si          0.10714      0.94235      0.36424  1.0000
  Si          0.84926      0.88457      0.03294  1.0000
  Si          0.02475      0.11903      0.69768  1.0000
  Si          0.89612      0.03529      0.86580  1.0000
  Si          0.15222      0.09250      0.53209  1.0000
  Si          0.95271      0.83879      0.19786  1.0000
  O2          0.93076      0.99596      0.99858  1.0000
  O2          0.99069      0.91449      0.33149  1.0000
  O2          0.06368      0.04634      0.66219  1.0000
  O2          0.06982      0.97982      0.49719  1.0000
  O2          0.00791      0.06395      0.83170  1.0000
  O2          0.92536      0.93007      0.16695  1.0000
  O1          0.32861      0.54704      0.34167  1.0000
  O1          0.40228      0.73263      0.67744  1.0000
  O3          0.23276      0.66483      0.00531  1.0000
  O1          0.66887      0.42861      0.84010  1.0000
  O1          0.54959      0.21623      0.16746  1.0000
  O1          0.76687      0.31352      0.50270  1.0000
  O3          0.56543      0.34224      0.99998  1.0000
  O1          0.75247      0.40332      0.67120  1.0000
  O1          0.64619      0.19714      0.33625  1.0000
  O1          0.43605      0.63398      0.51105  1.0000
  O1          0.20724      0.54886      0.17451  1.0000
  O1          0.34831      0.77781      0.84686  1.0000
  O3          0.11700      0.21701      0.97731  1.0000
  O2          0.76969      0.87590      0.30591  1.0000
  O2          0.07664      0.84994      0.63791  1.0000
  O2          0.88367      0.76051      0.47323  1.0000
  O2          0.22489      0.09564      0.80693  1.0000
  O2          0.88397      0.10998      0.14096  1.0000
  O2          0.20379      0.09150      0.36279  1.0000
  O2          0.90038      0.78642      0.02898  1.0000
  O3          0.87620      0.05464      0.69565  1.0000
  O2          0.79587      0.88639      0.86194  1.0000
  O2          0.09425      0.18454      0.53113  1.0000
  O2          0.10046      0.88605      0.19459  1.0000
  O2          0.91851      0.85176      0.24821  1.0000
  O2          0.14076      0.03702      0.58130  1.0000
  O2          0.95532      0.07167      0.91537  1.0000
  O2          0.07100      0.10736      0.74712  1.0000
  O2          0.87465      0.94263      0.08268  1.0000
  O2          0.05564      0.90311      0.41393  1.0000
  O3          0.88798      0.18007      0.97650  1.0000
  O3          0.80720      0.68435      0.31111  1.0000
  O2          0.28613      0.07076      0.64965  1.0000
  O3          0.11063      0.79264      0.47758  1.0000
  O3          0.18849      0.28882      0.80666  1.0000
  O3          0.69634      0.87658      0.14222  1.0000
  O2          0.17748      0.86659      0.34921  1.0000
  O3          0.70127      0.81266      0.02208  1.0000
  O2          0.08588      0.26807      0.68653  1.0000
  O2          0.82493      0.11364      0.85468  1.0000
  O2          0.29925      0.16957      0.51887  1.0000
  O2          0.87171      0.69196      0.18253  1.0000
  O1          0.31670      0.60293      0.25191  1.0000
  O1          0.34045      0.66932      0.58752  1.0000
  O3          0.29580      0.66690      0.92201  1.0000
  O1          0.67181      0.36150      0.75151  1.0000
  O1          0.61127      0.29427      0.08041  1.0000
  O1          0.69101      0.32150      0.41557  1.0000
  O3          0.37479      0.33401      0.96139  1.0000
  O3          0.66018      0.01145      0.29286  1.0000
  O3          0.93848      0.60440      0.62869  1.0000
  O3          0.63833      0.66132      0.46559  1.0000
  O3          0.33611      0.96090      0.80180  1.0000
  O3          0.01544      0.35487      0.12970  1.0000
  O3          0.32079      0.33358      0.36012  1.0000
  O3          0.01157      0.65425      0.02510  1.0000
  O1          0.62414      0.94936      0.69377  1.0000
  O3          0.66054      0.64361      0.85781  1.0000
  O3          0.96934      0.30172      0.52438  1.0000
  O3          0.34038      0.99439      0.18931  1.0000
  O1          0.75256      0.29237      0.00116  1.0000
  O1          0.67748      0.43770      0.33707  1.0000
  O3          0.51958      0.20117      0.67301  1.0000
  O1          0.22314      0.66034      0.50624  1.0000
  O1          0.29999      0.53904      0.83729  1.0000
  O1          0.44716      0.73653      0.16924  1.0000
  O3          0.26514      0.72771      0.31722  1.0000
  O3          0.46205      0.71897      0.98545  1.0000
  O3          0.22432      0.49156      0.65276  1.0000
  O3          0.73492      0.24882      0.81950  1.0000
  O3          0.52181      0.25834      0.48369  1.0000
  O3          0.73502      0.46525      0.14949  1.0000
  O3          0.76301      0.54222      0.02632  1.0000
  O3          0.44915      0.21101      0.36455  1.0000
  O1          0.77159      0.21529      0.69333  1.0000
  O3          0.21938      0.43070      0.53538  1.0000
  O3          0.54729      0.77848      0.86327  1.0000
  O3          0.20763      0.74545      0.19368  1.0000
  O3          0.52299      0.77495      0.30979  1.0000
  O3          0.26048      0.48160      0.97857  1.0000
  O3          0.17758      0.70428      0.64540  1.0000
  O3          0.47195      0.20461      0.81167  1.0000
  O3          0.72621      0.51375      0.47724  1.0000
  O3          0.77100      0.24412      0.14120  1.0000
  O1          0.20933      0.33544      0.89682  1.0000
  O3          0.64899      0.85127      0.23181  1.0000
  O3          0.10354      0.75097      0.56670  1.0000
  O3          0.77634      0.64427      0.40018  1.0000
  O2          0.34572      0.10632      0.73479  1.0000
  O3          0.86271      0.20262      0.06616  1.0000
  O2          0.32258      0.22009      0.43507  1.0000
  O2          0.89909      0.66062      0.09970  1.0000
  O3          0.77054      0.08001      0.77279  1.0000
  O3          0.67809      0.76797      0.93340  1.0000
  O2          0.06800      0.29512      0.60200  1.0000
  O2          0.22713      0.88482      0.26535  1.0000
  O3          0.55168      0.55367      0.99414  1.0000
  O3          0.41700      0.96803      0.32508  1.0000
  O3          0.98707      0.40757      0.66031  1.0000
  O3          0.43318      0.40961      0.49523  1.0000
  O3          0.58085      0.01427      0.83134  1.0000
  O3          0.97205      0.54925      0.16090  1.0000
  O1          0.55822      0.58489      0.34059  1.0000
  O1          0.02080      0.42472      0.01224  1.0000
  O3          0.39038      0.95069      0.68481  1.0000
  O1          0.43283      0.40439      0.84405  1.0000
  O1          0.95598      0.53987      0.50469  1.0000
  O1          0.57873      0.00483      0.17527  1.0000
  O1          0.54058      0.12677      0.25138  1.0000
  O1          0.82117      0.37036      0.58590  1.0000
  O3          0.59503      0.45598      0.92313  1.0000
  O1          0.44840      0.83868      0.76129  1.0000
  O1          0.13901      0.58903      0.08932  1.0000
  O1          0.39988      0.54977      0.42396  1.0000
  F           0.41669      0.84195      0.23759  1.0000
  F           0.06199      0.50887      0.57191  1.0000
  F           0.43710      0.57193      0.90689  1.0000
  F           0.58299      0.12263      0.74344  1.0000
  F           0.85077      0.42370      0.07158  1.0000
  F           0.53260      0.44557      0.40594  1.0000
