data_cif

_audit_creation_method             'generated by GULP'

_symmetry_space_group_name_H-M     'P 1'
_symmetry_Int_Tables_number        1
_symmetry_cell_setting             triclinic

_cell_length_a                       12.2152
_cell_length_b                       12.2348
_cell_length_c                       30.0608
_cell_angle_alpha                   90.3987
_cell_angle_beta                    89.3972
_cell_angle_gamma                  119.8646

loop_
_atom_site_label
_atom_site_fract_x
_atom_site_fract_y
_atom_site_fract_z
_atom_site_occupancy
  Ge          0.69960      0.37570      0.03389  1.0000
  Ge          0.63928      0.31333      0.36393  1.0000
  Ge          0.71453      0.32544      0.69852  1.0000
  Ge          0.31494      0.61784      0.52504  1.0000
  Ge          0.39720      0.70861      0.86021  1.0000
  Ge          0.35218      0.72323      0.19285  1.0000
  Ge          0.39898      0.69998      0.29624  1.0000
  Ge          0.34246      0.63250      0.95916  1.0000
  Ge          0.32945      0.68335      0.62991  1.0000
  Ge          0.64594      0.30869      0.80306  1.0000
  Ge          0.68984      0.38018      0.46881  1.0000
  Ge          0.73774      0.34425      0.13246  1.0000
  Ge          0.52288      0.42360      0.97088  1.0000
  Ge          0.59434      0.09085      0.29937  1.0000
  Ge          0.93997      0.49567      0.63371  1.0000
  Ge          0.48933      0.56991      0.45870  1.0000
  Ge          0.45217      0.92780      0.79121  1.0000
  Ge          0.13261      0.54031      0.12716  1.0000
  Ge          0.43588      0.51760      0.35884  1.0000
  Ge          0.11279      0.57540      0.02126  1.0000
  Ge          0.50111      0.90778      0.69206  1.0000
  Ge          0.58997      0.48137      0.86631  1.0000
  Ge          0.90813      0.42404      0.53463  1.0000
  Ge          0.56303      0.13193      0.19938  1.0000
  Ge          0.30201      0.41273      0.85257  1.0000
  Si          0.63658      0.91749      0.18523  1.0000
  Si          0.11891      0.71103      0.51937  1.0000
  Si          0.72635      0.59813      0.35048  1.0000
  Ge          0.42261      0.12388      0.68431  1.0000
  Si          0.89444      0.28726      0.01749  1.0000
  Ge          0.40220      0.29610      0.48318  1.0000
  Si          0.92556      0.61796      0.14839  1.0000
  Si          0.72559      0.10615      0.81723  1.0000
  Ge          0.61252      0.71887      0.98615  1.0000
  Ge          0.12548      0.40136      0.65182  1.0000
  Ge          0.31758      0.90178      0.31838  1.0000
  Si          0.24156      0.34724      0.95564  1.0000
  Si          0.68773      0.90756      0.28633  1.0000
  Si          0.12606      0.77148      0.62104  1.0000
  Si          0.76881      0.66532      0.45204  1.0000
  Si          0.35545      0.10988      0.78704  1.0000
  Ge          0.92781      0.25214      0.12013  1.0000
  Si          0.35163      0.24000      0.38003  1.0000
  Si          0.91504      0.66058      0.04646  1.0000
  Si          0.77769      0.10526      0.71482  1.0000
  Si          0.67535      0.76436      0.88325  1.0000
  Si          0.10250      0.33629      0.54887  1.0000
  Si          0.27882      0.93193      0.21614  1.0000
  Si          0.97269      0.11729      0.96917  1.0000
  Si          0.90370      0.84583      0.30190  1.0000
  Si          0.17232      0.04577      0.63504  1.0000
  Si          0.04339      0.88319      0.46899  1.0000
  Si          0.13170      0.16003      0.80310  1.0000
  Si          0.88522      0.98169      0.13611  1.0000
  Si          0.13359      0.96323      0.36871  1.0000
  Si          0.86533      0.88580      0.03598  1.0000
  Si          0.05383      0.15523      0.70270  1.0000
  Si          0.89724      0.03363      0.86811  1.0000
  Si          0.15623      0.11571      0.53494  1.0000
  Si          0.00195      0.86321      0.20156  1.0000
  O2          0.94330      0.00116      0.00163  1.0000
  O2          0.01434      0.92667      0.33674  1.0000
  O2          0.08332      0.06728      0.67004  1.0000
  O2          0.07179      0.99590      0.50316  1.0000
  O2          0.01842      0.07100      0.83686  1.0000
  O2          0.95642      0.93982      0.17092  1.0000
  O1          0.36078      0.55840      0.32032  1.0000
  O1          0.46810      0.78725      0.65574  1.0000
  O1          0.23113      0.66300      0.98707  1.0000
  O1          0.68076      0.43703      0.83636  1.0000
  O1          0.60429      0.25633      0.16685  1.0000
  O1          0.78570      0.34375      0.49912  1.0000
  O1          0.57297      0.33771      0.00074  1.0000
  O1          0.80681      0.45287      0.66882  1.0000
  O1          0.68114      0.22648      0.33381  1.0000
  O1          0.43308      0.65716      0.48942  1.0000
  O1          0.27440      0.60701      0.15508  1.0000
  O1          0.36644      0.79089      0.82384  1.0000
  O2          0.12030      0.21785      0.97375  1.0000
  O2          0.80924      0.90103      0.30365  1.0000
  O2          0.13787      0.90091      0.63988  1.0000
  O2          0.89358      0.79020      0.46971  1.0000
  O2          0.23907      0.12143      0.80856  1.0000
  O3          0.95203      0.13012      0.13824  1.0000
  O2          0.23376      0.11094      0.36005  1.0000
  O2          0.91099      0.78361      0.02792  1.0000
  O2          0.90710      0.11448      0.69603  1.0000
  O2          0.80323      0.88436      0.86296  1.0000
  O2          0.10601      0.21443      0.52798  1.0000
  O2          0.15295      0.93049      0.19695  1.0000
  O2          0.96108      0.86266      0.25255  1.0000
  O2          0.13792      0.06935      0.58580  1.0000
  O2          0.94104      0.06780      0.91877  1.0000
  O2          0.07711      0.13093      0.75326  1.0000
  O2          0.89473      0.93632      0.08641  1.0000
  O2          0.08776      0.93998      0.41990  1.0000
  O2          0.89154      0.18501      0.98125  1.0000
  O2          0.82779      0.69789      0.31462  1.0000
  O3          0.31847      0.13106      0.64569  1.0000
  O2          0.11416      0.80716      0.48305  1.0000
  O3          0.19239      0.30571      0.81427  1.0000
  O2          0.73680      0.92254      0.14824  1.0000
  O3          0.19902      0.88309      0.35648  1.0000
  O3          0.71852      0.82090      0.02593  1.0000
  O3          0.13877      0.29943      0.68951  1.0000
  O2          0.82686      0.10907      0.85274  1.0000
  O3          0.30084      0.18171      0.52144  1.0000
  O2          0.93576      0.71979      0.18515  1.0000
  O1          0.32864      0.66084      0.24521  1.0000
  O1          0.37012      0.65458      0.57882  1.0000
  O1          0.35320      0.72299      0.91320  1.0000
  O1          0.72092      0.36689      0.75400  1.0000
  O1          0.64599      0.33637      0.08688  1.0000
  O1          0.66987      0.30550      0.41927  1.0000
  O3          0.36103      0.35072      0.97949  1.0000
  O3          0.69132      0.02441      0.31106  1.0000
  O3          0.00561      0.65924      0.64447  1.0000
  O3          0.65099      0.67180      0.47185  1.0000
  O3          0.34866      0.98618      0.80629  1.0000
  O1          0.05871      0.38329      0.14039  1.0000
  O3          0.33239      0.35600      0.36663  1.0000
  O3          0.04464      0.67124      0.03217  1.0000
  O3          0.66399      0.97098      0.70086  1.0000
  O3          0.68905      0.64169      0.87604  1.0000
  O3          0.96577      0.31905      0.54066  1.0000
  O3          0.39729      0.06632      0.20701  1.0000
  O3          0.75845      0.27644      0.01714  1.0000
  O3          0.73656      0.47377      0.34993  1.0000
  O1          0.55782      0.26575      0.68309  1.0000
  O3          0.25078      0.71601      0.51417  1.0000
  O1          0.29662      0.54702      0.84779  1.0000
  O3          0.51185      0.78241      0.18129  1.0000
  O1          0.33155      0.77004      0.32711  1.0000
  O1          0.47087      0.70910      0.99611  1.0000
  O1          0.25803      0.54598      0.66029  1.0000
  O3          0.70796      0.22519      0.82905  1.0000
  O1          0.54768      0.31655      0.49672  1.0000
  O3          0.80712      0.48813      0.16317  1.0000
  O3          0.80013      0.53667      0.02497  1.0000
  O3          0.48141      0.26933      0.35642  1.0000
  O3          0.75458      0.20826      0.69117  1.0000
  O3          0.19761      0.46077      0.52172  1.0000
  O3          0.55570      0.74518      0.85629  1.0000
  O3          0.29877      0.82926      0.18862  1.0000
  O3          0.56373      0.77604      0.29808  1.0000
  O3          0.22909      0.46611      0.96993  1.0000
  O3          0.25399      0.77286      0.63376  1.0000
  O3          0.48223      0.23578      0.80287  1.0000
  O3          0.77472      0.54462      0.46938  1.0000
  O1          0.79338      0.23659      0.14322  1.0000
  O3          0.24585      0.33171      0.90225  1.0000
  O2          0.70445      0.93336      0.23282  1.0000
  O2          0.10672      0.76620      0.56730  1.0000
  O2          0.77022      0.67096      0.39793  1.0000
  O3          0.33903      0.10286      0.73359  1.0000
  O3          0.92737      0.23926      0.06239  1.0000
  O3          0.34606      0.21692      0.43267  1.0000
  O2          0.90104      0.66246      0.10033  1.0000
  O2          0.79266      0.12501      0.76841  1.0000
  O3          0.67473      0.79395      0.93539  1.0000
  O3          0.13516      0.33791      0.60054  1.0000
  O3          0.24628      0.89622      0.26773  1.0000
  O1          0.60302      0.57471      0.99167  1.0000
  O1          0.45289      0.03705      0.33083  1.0000
  O1          0.99169      0.40581      0.66408  1.0000
  O1          0.39756      0.43161      0.49108  1.0000
  O3          0.59493      0.97890      0.82233  1.0000
  O3          0.05677      0.61711      0.14916  1.0000
  O3          0.58557      0.56175      0.33739  1.0000
  O3          0.99338      0.42898      0.00319  1.0000
  O1          0.45714      0.00969      0.66902  1.0000
  O1          0.45322      0.44669      0.83951  1.0000
  O3          0.00809      0.57020      0.51013  1.0000
  O3          0.59649      0.02011      0.17542  1.0000
  O1          0.62715      0.17840      0.25104  1.0000
  O1          0.85121      0.43675      0.58516  1.0000
  O1          0.55558      0.40654      0.91670  1.0000
  O1          0.42542      0.84453      0.74124  1.0000
  O1          0.16800      0.55879      0.07212  1.0000
  O1          0.43956      0.59309      0.40726  1.0000
  F           0.48766      0.93624      0.26305  1.0000
  F           0.09114      0.53963      0.59622  1.0000
  F           0.43740      0.57005      0.92697  1.0000
  F           0.54734      0.08115      0.75657  1.0000
  F           0.88500      0.42525      0.09237  1.0000
  F           0.54335      0.46167      0.42687  1.0000
