data_cif

_audit_creation_method             'generated by GULP'

_symmetry_space_group_name_H-M     'P 1'
_symmetry_Int_Tables_number        1
_symmetry_cell_setting             triclinic

_cell_length_a                       12.2235
_cell_length_b                       12.2249
_cell_length_c                       29.9793
_cell_angle_alpha                   90.2434
_cell_angle_beta                    90.0104
_cell_angle_gamma                  120.0880

loop_
_atom_site_label
_atom_site_fract_x
_atom_site_fract_y
_atom_site_fract_z
_atom_site_occupancy
  Ge          0.69960      0.37570      0.03389  1.0000
  Ge          0.68556      0.34060      0.36757  1.0000
  Ge          0.71971      0.35749      0.70403  1.0000
  Ge          0.35189      0.66486      0.53076  1.0000
  Ge          0.38801      0.69942      0.86423  1.0000
  Ge          0.35543      0.69345      0.19708  1.0000
  Ge          0.42349      0.71965      0.29620  1.0000
  Ge          0.34412      0.64037      0.96376  1.0000
  Ge          0.33666      0.71459      0.62987  1.0000
  Ge          0.64470      0.31475      0.80261  1.0000
  Ge          0.71884      0.41290      0.46655  1.0000
  Ge          0.73687      0.33275      0.13186  1.0000
  Si          0.52803      0.42543      0.97084  1.0000
  Ge          0.63172      0.11384      0.30235  1.0000
  Ge          0.94337      0.52928      0.63873  1.0000
  Ge          0.52454      0.61397      0.46401  1.0000
  Ge          0.44168      0.92255      0.79828  1.0000
  Ge          0.13127      0.52106      0.13114  1.0000
  Ge          0.48549      0.55331      0.35801  1.0000
  Ge          0.11959      0.57528      0.02617  1.0000
  Ge          0.50531      0.94255      0.69289  1.0000
  Ge          0.58180      0.48061      0.86679  1.0000
  Ge          0.93728      0.46711      0.53322  1.0000
  Ge          0.57442      0.10810      0.19685  1.0000
  Si          0.29638      0.41252      0.85372  1.0000
  Si          0.64204      0.88908      0.18826  1.0000
  Si          0.15593      0.75401      0.52203  1.0000
  Si          0.77402      0.62418      0.35201  1.0000
  Si          0.43604      0.16020      0.68867  1.0000
  Ge          0.89685      0.28330      0.01955  1.0000
  Si          0.44543      0.32841      0.48449  1.0000
  Ge          0.92592      0.60852      0.15275  1.0000
  Ge          0.73474      0.12899      0.81965  1.0000
  Ge          0.61607      0.71686      0.98615  1.0000
  Ge          0.15229      0.44331      0.65468  1.0000
  Ge          0.33655      0.90478      0.31944  1.0000
  Ge          0.24716      0.35276      0.95713  1.0000
  Si          0.70755      0.90661      0.29071  1.0000
  Si          0.14930      0.81115      0.62414  1.0000
  Ge          0.81317      0.69528      0.45525  1.0000
  Si          0.36311      0.12804      0.79053  1.0000
  Si          0.92391      0.23646      0.12269  1.0000
  Si          0.40006      0.27126      0.38235  1.0000
  Si          0.91989      0.65762      0.05032  1.0000
  Si          0.79027      0.14144      0.71646  1.0000
  Si          0.67220      0.76814      0.88344  1.0000
  Si          0.13878      0.38272      0.55159  1.0000
  Si          0.28794      0.90875      0.21631  1.0000
  Si          0.97729      0.11104      0.97027  1.0000
  Si          0.94134      0.87240      0.30342  1.0000
  Si          0.19036      0.08242      0.63681  1.0000
  Si          0.08306      0.92854      0.47118  1.0000
  Si          0.13103      0.16451      0.80246  1.0000
  Si          0.88987      0.97038      0.13763  1.0000
  Si          0.17349      0.99678      0.37023  1.0000
  Si          0.87108      0.87960      0.03686  1.0000
  Si          0.06116      0.18656      0.70234  1.0000
  Si          0.90010      0.03801      0.86914  1.0000
  Si          0.19612      0.16690      0.53563  1.0000
  Si          0.01787      0.86469      0.20295  1.0000
  O2          0.94610      0.99250      0.00181  1.0000
  O2          0.05653      0.96085      0.33647  1.0000
  O2          0.09699      0.10921      0.66675  1.0000
  O2          0.11898      0.04816      0.50294  1.0000
  O2          0.01344      0.07392      0.83384  1.0000
  O2          0.98117      0.94365      0.16878  1.0000
  O1          0.39415      0.58093      0.32444  1.0000
  O1          0.47617      0.82444      0.65827  1.0000
  O1          0.24142      0.67464      0.99467  1.0000
  O1          0.67361      0.44390      0.83739  1.0000
  O1          0.60347      0.22825      0.16379  1.0000
  O1          0.81137      0.37514      0.50194  1.0000
  O3          0.57653      0.34558      0.99836  1.0000
  O1          0.80867      0.48218      0.66996  1.0000
  O1          0.71925      0.25116      0.33268  1.0000
  O1          0.46356      0.69531      0.49137  1.0000
  O1          0.27258      0.57625      0.15921  1.0000
  O1          0.35491      0.78126      0.82588  1.0000
  O3          0.12205      0.21442      0.97842  1.0000
  O2          0.83957      0.91857      0.30729  1.0000
  O2          0.14093      0.93387      0.64001  1.0000
  O3          0.93505      0.84084      0.47430  1.0000
  O2          0.22959      0.11427      0.80601  1.0000
  O2          0.93749      0.11857      0.14120  1.0000
  O2          0.27653      0.14449      0.36313  1.0000
  O2          0.92067      0.78109      0.02925  1.0000
  O2          0.91404      0.14330      0.69449  1.0000
  O2          0.79776      0.88955      0.86244  1.0000
  O2          0.13587      0.25682      0.53096  1.0000
  O2          0.16569      0.91165      0.19518  1.0000
  O2          0.99449      0.89369      0.25333  1.0000
  O2          0.18509      0.11935      0.58601  1.0000
  O2          0.95789      0.06490      0.91879  1.0000
  O2          0.08201      0.15065      0.75194  1.0000
  O2          0.90106      0.93431      0.08698  1.0000
  O2          0.12340      0.97491      0.42066  1.0000
  O3          0.89137      0.17227      0.98107  1.0000
  O2          0.87381      0.72369      0.31537  1.0000
  O2          0.33528      0.16239      0.65361  1.0000
  O2          0.15162      0.85015      0.48574  1.0000
  O2          0.19953      0.31177      0.81662  1.0000
  O2          0.74379      0.89001      0.15292  1.0000
  O3          0.23611      0.91332      0.35919  1.0000
  O3          0.72318      0.81110      0.02736  1.0000
  O3          0.14529      0.33429      0.69400  1.0000
  O3          0.83408      0.11889      0.85936  1.0000
  O2          0.34263      0.23985      0.52159  1.0000
  O3          0.93602      0.71742      0.19278  1.0000
  O1          0.33747      0.63265      0.24900  1.0000
  O1          0.41905      0.71304      0.58195  1.0000
  O1          0.34310      0.72174      0.91567  1.0000
  O1          0.72994      0.41014      0.75719  1.0000
  O1          0.64487      0.33340      0.08674  1.0000
  O1          0.72735      0.32808      0.42064  1.0000
  O3          0.37905      0.35786      0.98074  1.0000
  O3          0.70746      0.02749      0.31171  1.0000
  O3          0.02993      0.69247      0.64658  1.0000
  O1          0.68280      0.69474      0.47661  1.0000
  O3          0.36342      0.00585      0.80961  1.0000
  O3          0.04404      0.36042      0.14304  1.0000
  O3          0.38938      0.39005      0.36875  1.0000
  O3          0.05253      0.66860      0.04141  1.0000
  O3          0.66812      0.01107      0.70431  1.0000
  O3          0.67973      0.64439      0.87456  1.0000
  O3          0.00605      0.37242      0.54287  1.0000
  O3          0.41157      0.04053      0.20797  1.0000
  O1          0.75254      0.27329      0.01757  1.0000
  O3          0.78473      0.49892      0.35120  1.0000
  O3          0.56072      0.29604      0.68785  1.0000
  O3          0.29049      0.76381      0.51753  1.0000
  O3          0.28823      0.53871      0.85024  1.0000
  O3          0.51652      0.75460      0.18405  1.0000
  O1          0.34397      0.77275      0.33174  1.0000
  O1          0.47961      0.71553      0.99814  1.0000
  O1          0.28619      0.58314      0.66562  1.0000
  O1          0.72489      0.25769      0.83546  1.0000
  O3          0.57598      0.33879      0.49825  1.0000
  O1          0.79826      0.46706      0.16658  1.0000
  O3          0.80893      0.53507      0.02591  1.0000
  O3          0.52341      0.27945      0.36034  1.0000
  O3          0.78023      0.25657      0.69528  1.0000
  O3          0.24767      0.50294      0.52588  1.0000
  O3          0.55001      0.75689      0.85903  1.0000
  O3          0.29917      0.79863      0.19106  1.0000
  O3          0.59108      0.77856      0.30810  1.0000
  O1          0.23212      0.47557      0.97537  1.0000
  O3          0.27862      0.82390      0.64068  1.0000
  O3          0.47685      0.25410      0.81099  1.0000
  O1          0.82979      0.57683      0.47735  1.0000
  O3          0.79510      0.22357      0.14041  1.0000
  O3          0.24143      0.33599      0.89944  1.0000
  O2          0.71174      0.91333      0.23626  1.0000
  O2          0.13496      0.80292      0.56988  1.0000
  O3          0.82345      0.70583      0.39724  1.0000
  O2          0.36317      0.12743      0.73611  1.0000
  O3          0.92965      0.23137      0.06877  1.0000
  O2          0.39873      0.25678      0.43635  1.0000
  O3          0.89656      0.66244      0.10302  1.0000
  O3          0.81619      0.15491      0.76946  1.0000
  O3          0.67711      0.79658      0.93623  1.0000
  O3          0.16484      0.37971      0.60402  1.0000
  O3          0.25790      0.88455      0.26885  1.0000
  O3          0.60318      0.56932      0.98932  1.0000
  O1          0.48106      0.04100      0.32393  1.0000
  O1          0.01815      0.45427      0.66080  1.0000
  O3          0.44882      0.46157      0.48542  1.0000
  O1          0.59061      0.99170      0.82160  1.0000
  O1          0.06335      0.60277      0.15371  1.0000
  O3          0.63088      0.57979      0.33845  1.0000
  O1          0.00339      0.43362      0.00372  1.0000
  O3          0.47703      0.06041      0.67367  1.0000
  O3          0.43986      0.45204      0.84309  1.0000
  O3          0.05212      0.61088      0.51088  1.0000
  O3          0.60353      0.99223      0.17572  1.0000
  O1          0.64706      0.15908      0.24810  1.0000
  O1          0.89308      0.49292      0.58500  1.0000
  O3          0.55061      0.41156      0.91914  1.0000
  O1          0.43030      0.88544      0.74326  1.0000
  O1          0.16767      0.54177      0.07613  1.0000
  O1          0.50531      0.62826      0.40868  1.0000
  F           0.47868      0.87017      0.26240  1.0000
  F           0.18250      0.61546      0.59703  1.0000
  F           0.43195      0.57556      0.92861  1.0000
  F           0.59547      0.16981      0.76435  1.0000
  F           0.88323      0.42411      0.09369  1.0000
  F           0.63770      0.47703      0.42743  1.0000
