data_cif

_audit_creation_method             'generated by GULP'

_symmetry_space_group_name_H-M     'P 1'
_symmetry_Int_Tables_number        1
_symmetry_cell_setting             triclinic

_cell_length_a                       12.2310
_cell_length_b                       12.2564
_cell_length_c                       30.1022
_cell_angle_alpha                   90.3364
_cell_angle_beta                    89.4325
_cell_angle_gamma                  120.1493

loop_
_atom_site_label
_atom_site_fract_x
_atom_site_fract_y
_atom_site_fract_z
_atom_site_occupancy
  Ge          0.69960      0.37570      0.03389  1.0000
  Ge          0.65402      0.34468      0.36498  1.0000
  Ge          0.68053      0.31453      0.69949  1.0000
  Ge          0.31014      0.64439      0.52848  1.0000
  Ge          0.38691      0.68375      0.86492  1.0000
  Ge          0.35111      0.71440      0.19378  1.0000
  Ge          0.40077      0.70246      0.29833  1.0000
  Si          0.31758      0.62809      0.96721  1.0000
  Ge          0.31150      0.70896      0.63327  1.0000
  Ge          0.62331      0.31147      0.80494  1.0000
  Ge          0.70269      0.40794      0.46966  1.0000
  Ge          0.71505      0.31810      0.13738  1.0000
  Ge          0.52172      0.41539      0.97021  1.0000
  Ge          0.60619      0.12029      0.30324  1.0000
  Ge          0.90078      0.49575      0.63506  1.0000
  Ge          0.48924      0.60262      0.46285  1.0000
  Ge          0.42137      0.89546      0.79833  1.0000
  Ge          0.13264      0.54052      0.12810  1.0000
  Ge          0.45302      0.53354      0.36364  1.0000
  Ge          0.09196      0.57393      0.02955  1.0000
  Ge          0.48767      0.92961      0.69975  1.0000
  Ge          0.57676      0.48365      0.87103  1.0000
  Ge          0.91948      0.45037      0.53548  1.0000
  Ge          0.54124      0.09744      0.20456  1.0000
  Ge          0.30073      0.39628      0.84721  1.0000
  Si          0.63507      0.91746      0.17931  1.0000
  Ge          0.10588      0.72596      0.51169  1.0000
  Ge          0.73288      0.62730      0.34447  1.0000
  Si          0.40064      0.11605      0.67754  1.0000
  Ge          0.90132      0.29456      0.01227  1.0000
  Si          0.41344      0.31554      0.47649  1.0000
  Ge          0.91616      0.61350      0.14418  1.0000
  Si          0.70838      0.10988      0.81204  1.0000
  Ge          0.60134      0.71033      0.98082  1.0000
  Si          0.11431      0.42195      0.64576  1.0000
  Ge          0.31092      0.90481      0.31175  1.0000
  Si          0.24336      0.34106      0.94922  1.0000
  Si          0.68540      0.92209      0.28144  1.0000
  Si          0.09508      0.77613      0.61489  1.0000
  Si          0.77164      0.68971      0.44752  1.0000
  Ge          0.33784      0.09561      0.78066  1.0000
  Si          0.93317      0.25822      0.11435  1.0000
  Si          0.36252      0.25708      0.37507  1.0000
  Si          0.90796      0.66784      0.04255  1.0000
  Si          0.76600      0.11087      0.71051  1.0000
  Si          0.67200      0.76318      0.87783  1.0000
  Si          0.10376      0.35730      0.54417  1.0000
  Si          0.26218      0.91654      0.20921  1.0000
  Si          0.96629      0.11826      0.96056  1.0000
  Si          0.91098      0.87265      0.29321  1.0000
  Si          0.15978      0.05310      0.62724  1.0000
  Si          0.04616      0.90944      0.46092  1.0000
  Si          0.11776      0.15786      0.79323  1.0000
  Si          0.87918      0.98563      0.12764  1.0000
  Si          0.13573      0.98215      0.36089  1.0000
  Si          0.85481      0.88969      0.02749  1.0000
  Si          0.04330      0.17269      0.69301  1.0000
  Si          0.88408      0.03883      0.86012  1.0000
  Si          0.16477      0.14146      0.52722  1.0000
  Si          0.98874      0.86412      0.19315  1.0000
  O2          0.93716      0.99772      0.99093  1.0000
  O2          0.02715      0.96026      0.32581  1.0000
  O2          0.07819      0.09649      0.65719  1.0000
  O2          0.08186      0.02864      0.49318  1.0000
  O2          0.99246      0.07639      0.82322  1.0000
  O2          0.96198      0.94703      0.15795  1.0000
  O1          0.36401      0.57663      0.32912  1.0000
  O1          0.43687      0.79655      0.66433  1.0000
  O3          0.22613      0.65891      0.99310  1.0000
  O1          0.66660      0.43443      0.83834  1.0000
  O1          0.59472      0.23412      0.17142  1.0000
  O1          0.77915      0.36471      0.50396  1.0000
  O1          0.56038      0.33586      0.00757  1.0000
  O1          0.77899      0.45252      0.67204  1.0000
  O1          0.69124      0.24203      0.33917  1.0000
  O1          0.44549      0.68156      0.49912  1.0000
  O1          0.26277      0.58592      0.16070  1.0000
  O1          0.34471      0.77523      0.83542  1.0000
  O2          0.11148      0.22746      0.96974  1.0000
  O2          0.80533      0.91396      0.30000  1.0000
  O2          0.09910      0.90325      0.63423  1.0000
  O2          0.89686      0.81107      0.46835  1.0000
  O3          0.20475      0.09742      0.80090  1.0000
  O2          0.93678      0.13524      0.13330  1.0000
  O2          0.24519      0.12779      0.35630  1.0000
  O2          0.89592      0.78413      0.02221  1.0000
  O2          0.89318      0.11656      0.69143  1.0000
  O2          0.79493      0.88841      0.85818  1.0000
  O2          0.10684      0.23325      0.52724  1.0000
  O2          0.13612      0.90675      0.18777  1.0000
  O2          0.96009      0.89567      0.24251  1.0000
  O2          0.15325      0.08515      0.57612  1.0000
  O2          0.94596      0.08018      0.90868  1.0000
  O2          0.08161      0.15060      0.74141  1.0000
  O2          0.88682      0.94997      0.07665  1.0000
  O2          0.07540      0.95695      0.41020  1.0000
  O3          0.87948      0.17426      0.97506  1.0000
  O3          0.85020      0.72853      0.30668  1.0000
  O2          0.30622      0.12538      0.64151  1.0000
  O3          0.12294      0.84161      0.47366  1.0000
  O3          0.19036      0.30240      0.80717  1.0000
  O2          0.73339      0.91161      0.14380  1.0000
  O3          0.19793      0.89790      0.35033  1.0000
  O3          0.70704      0.82401      0.01829  1.0000
  O2          0.11384      0.32175      0.68158  1.0000
  O2          0.80256      0.10593      0.84931  1.0000
  O2          0.31174      0.21843      0.51286  1.0000
  O3          0.90863      0.71714      0.18328  1.0000
  O1          0.36708      0.65878      0.24326  1.0000
  O1          0.35777      0.71670      0.57863  1.0000
  O3          0.34746      0.69344      0.91879  1.0000
  O1          0.65367      0.35856      0.74986  1.0000
  O1          0.66141      0.29950      0.08342  1.0000
  O1          0.72314      0.37433      0.41560  1.0000
  O3          0.35625      0.33152      0.97148  1.0000
  O3          0.70603      0.05695      0.29504  1.0000
  O3          0.96025      0.65823      0.62800  1.0000
  O3          0.65240      0.70720      0.45675  1.0000
  O1          0.31645      0.95098      0.79301  1.0000
  O3          0.07131      0.37733      0.12141  1.0000
  O3          0.35555      0.36994      0.35227  1.0000
  O3          0.02339      0.66773      0.01712  1.0000
  O3          0.65087      0.99192      0.68773  1.0000
  O3          0.69023      0.64699      0.86514  1.0000
  O3          0.98096      0.34911      0.52323  1.0000
  O3          0.38054      0.03952      0.18944  1.0000
  O1          0.77553      0.31590      0.00230  1.0000
  O1          0.71965      0.48251      0.33491  1.0000
  O3          0.54012      0.23553      0.66971  1.0000
  O1          0.23447      0.70860      0.50021  1.0000
  O1          0.30023      0.53522      0.84291  1.0000
  O3          0.49855      0.79929      0.16801  1.0000
  O1          0.30365      0.76290      0.31347  1.0000
  O3          0.45419      0.69026      0.99147  1.0000
  O3          0.24701      0.54876      0.64801  1.0000
  O3          0.71779      0.24369      0.81566  1.0000
  O3          0.53971      0.31005      0.48069  1.0000
  O1          0.77536      0.47812      0.14865  1.0000
  O3          0.77554      0.54011      0.03457  1.0000
  O3          0.48916      0.25538      0.36191  1.0000
  O3          0.76941      0.23942      0.69724  1.0000
  O3          0.23117      0.47973      0.52756  1.0000
  O3          0.54808      0.74999      0.85402  1.0000
  O3          0.26292      0.78985      0.19436  1.0000
  O3          0.55807      0.81983      0.30538  1.0000
  O2          0.26080      0.47693      0.96117  1.0000
  O3          0.19677      0.75199      0.63926  1.0000
  O1          0.46565      0.20001      0.81078  1.0000
  O3          0.74231      0.56497      0.47422  1.0000
  O3          0.83748      0.28505      0.14252  1.0000
  O3          0.23418      0.31622      0.89678  1.0000
  O2          0.68218      0.90054      0.22806  1.0000
  O3          0.11862      0.80092      0.56254  1.0000
  O3          0.80404      0.68947      0.39573  1.0000
  O3          0.34226      0.12790      0.72471  1.0000
  O3          0.89210      0.22408      0.06341  1.0000
  O2          0.34658      0.26147      0.42881  1.0000
  O3          0.93678      0.69489      0.09491  1.0000
  O2          0.76278      0.09420      0.76430  1.0000
  O3          0.66672      0.78391      0.93058  1.0000
  O2          0.09352      0.35161      0.59817  1.0000
  O3          0.25099      0.92584      0.26254  1.0000
  O1          0.59271      0.56978      0.98916  1.0000
  O1          0.45916      0.01961      0.32668  1.0000
  O3          0.00543      0.45366      0.65775  1.0000
  O3          0.44256      0.45582      0.48667  1.0000
  O3          0.56753      0.99937      0.82259  1.0000
  O1          0.03550      0.58413      0.15567  1.0000
  O1          0.59578      0.62440      0.33303  1.0000
  O1          0.03825      0.43003      0.00142  1.0000
  O3          0.40051      0.98713      0.66960  1.0000
  O1          0.44303      0.40938      0.83534  1.0000
  O1          0.96877      0.58873      0.50267  1.0000
  O3          0.63433      0.04599      0.17372  1.0000
  O1          0.59701      0.18328      0.25395  1.0000
  O1          0.83787      0.42335      0.58594  1.0000
  O1          0.58109      0.40739      0.91946  1.0000
  O1          0.43090      0.83716      0.74780  1.0000
  O1          0.18353      0.60998      0.07730  1.0000
  O1          0.42154      0.59127      0.41265  1.0000
  F           0.48189      0.94638      0.23994  1.0000
  F           0.07523      0.55815      0.56861  1.0000
  F           0.47359      0.53598      0.90561  1.0000
  F           0.53459      0.07566      0.73848  1.0000
  F           0.94273      0.47451      0.07007  1.0000
  F           0.55842      0.48871      0.40028  1.0000
