data_cif

_audit_creation_method             'generated by GULP'

_symmetry_space_group_name_H-M     'P 1'
_symmetry_Int_Tables_number        1
_symmetry_cell_setting             triclinic

_cell_length_a                       12.2274
_cell_length_b                       12.2505
_cell_length_c                       30.0957
_cell_angle_alpha                   89.8466
_cell_angle_beta                    89.8575
_cell_angle_gamma                  120.0587

loop_
_atom_site_label
_atom_site_fract_x
_atom_site_fract_y
_atom_site_fract_z
_atom_site_occupancy
  Ge          0.69960      0.37570      0.03389  1.0000
  Ge          0.64539      0.33688      0.36666  1.0000
  Ge          0.68183      0.31262      0.70067  1.0000
  Ge          0.30718      0.63716      0.53106  1.0000
  Ge          0.37675      0.67772      0.86426  1.0000
  Ge          0.34068      0.70488      0.19758  1.0000
  Ge          0.39489      0.69782      0.30209  1.0000
  Ge          0.31321      0.61832      0.96890  1.0000
  Ge          0.30988      0.69725      0.63584  1.0000
  Ge          0.61693      0.30426      0.80521  1.0000
  Ge          0.69570      0.39717      0.47158  1.0000
  Ge          0.70475      0.30854      0.13751  1.0000
  Ge          0.52043      0.41770      0.97017  1.0000
  Ge          0.59828      0.11550      0.30360  1.0000
  Ge          0.90324      0.49230      0.63689  1.0000
  Ge          0.48459      0.59349      0.46631  1.0000
  Ge          0.41724      0.89826      0.80007  1.0000
  Ge          0.12207      0.52854      0.13301  1.0000
  Ge          0.44608      0.52651      0.36718  1.0000
  Ge          0.09217      0.57317      0.03410  1.0000
  Ge          0.48300      0.91989      0.70060  1.0000
  Ge          0.56930      0.47816      0.87046  1.0000
  Ge          0.91668      0.44542      0.53729  1.0000
  Ge          0.52980      0.08841      0.20503  1.0000
  Ge          0.29455      0.39279      0.84765  1.0000
  Si          0.62281      0.90733      0.18145  1.0000
  Ge          0.10507      0.72122      0.51418  1.0000
  Ge          0.72519      0.62092      0.34672  1.0000
  Ge          0.39806      0.11123      0.68085  1.0000
  Ge          0.90282      0.29579      0.01289  1.0000
  Si          0.40732      0.30516      0.47933  1.0000
  Ge          0.90563      0.60284      0.14734  1.0000
  Si          0.70590      0.10637      0.81336  1.0000
  Si          0.59956      0.70649      0.97999  1.0000
  Si          0.11221      0.41134      0.64728  1.0000
  Ge          0.30379      0.89969      0.31344  1.0000
  Si          0.24150      0.33382      0.95054  1.0000
  Si          0.67740      0.91666      0.28351  1.0000
  Si          0.09817      0.77140      0.61718  1.0000
  Si          0.76622      0.68048      0.44981  1.0000
  Si          0.33319      0.09376      0.78343  1.0000
  Si          0.92385      0.24853      0.11542  1.0000
  Si          0.35450      0.24968      0.37764  1.0000
  Si          0.90755      0.66596      0.04536  1.0000
  Si          0.76097      0.10436      0.71179  1.0000
  Si          0.66353      0.75634      0.87850  1.0000
  Si          0.10012      0.35034      0.54561  1.0000
  Si          0.25113      0.90717      0.21091  1.0000
  Si          0.96468      0.11466      0.96177  1.0000
  Si          0.90271      0.86629      0.29477  1.0000
  Si          0.15478      0.04716      0.62895  1.0000
  Si          0.04019      0.90124      0.46263  1.0000
  Si          0.11433      0.15078      0.79529  1.0000
  Si          0.86411      0.97306      0.12881  1.0000
  Si          0.12807      0.97534      0.36258  1.0000
  Si          0.84749      0.88130      0.02815  1.0000
  Si          0.03649      0.16069      0.69500  1.0000
  Si          0.88117      0.03184      0.86159  1.0000
  Si          0.15683      0.13208      0.52867  1.0000
  Si          0.97691      0.85353      0.19479  1.0000
  O2          0.92776      0.99400      0.99342  1.0000
  O2          0.02037      0.95374      0.32684  1.0000
  O2          0.06687      0.08153      0.65941  1.0000
  O2          0.07462      0.02128      0.49400  1.0000
  O2          0.99143      0.06380      0.82585  1.0000
  O2          0.94829      0.93338      0.15837  1.0000
  O1          0.35710      0.57228      0.33340  1.0000
  O1          0.43414      0.78256      0.66776  1.0000
  O1          0.22982      0.66028      0.00059  1.0000
  O1          0.65699      0.42464      0.83913  1.0000
  O1          0.58195      0.22266      0.17026  1.0000
  O1          0.77623      0.35772      0.50579  1.0000
  O1          0.56068      0.33983      0.00787  1.0000
  O1          0.78487      0.45216      0.67462  1.0000
  O1          0.68325      0.23709      0.33935  1.0000
  O1          0.44318      0.67337      0.50253  1.0000
  O1          0.24995      0.57242      0.16678  1.0000
  O1          0.33854      0.77663      0.83654  1.0000
  O2          0.11273      0.21379      0.97041  1.0000
  O2          0.79856      0.90946      0.30174  1.0000
  O2          0.10683      0.89920      0.63730  1.0000
  O2          0.89183      0.80092      0.47065  1.0000
  O2          0.21214      0.10003      0.80338  1.0000
  O2          0.92365      0.12286      0.13397  1.0000
  O2          0.23623      0.12158      0.35881  1.0000
  O2          0.90103      0.78598      0.02536  1.0000
  O2          0.88725      0.10757      0.69351  1.0000
  O2          0.78808      0.88215      0.86053  1.0000
  O2          0.10224      0.22679      0.52778  1.0000
  O2          0.12423      0.89625      0.18938  1.0000
  O2          0.94933      0.88767      0.24376  1.0000
  O2          0.13930      0.07254      0.57749  1.0000
  O2          0.94076      0.07249      0.91041  1.0000
  O2          0.07479      0.13823      0.74374  1.0000
  O2          0.86452      0.93628      0.07765  1.0000
  O2          0.06620      0.94693      0.41158  1.0000
  O3          0.88546      0.18023      0.97464  1.0000
  O3          0.84141      0.72226      0.30868  1.0000
  O3          0.29835      0.12809      0.64288  1.0000
  O3          0.12011      0.83674      0.47598  1.0000
  O3          0.17891      0.29385      0.80951  1.0000
  O2          0.71999      0.90006      0.14619  1.0000
  O3          0.19186      0.89273      0.35216  1.0000
  O2          0.69895      0.80645      0.01592  1.0000
  O2          0.11003      0.30978      0.68314  1.0000
  O2          0.80318      0.10232      0.84954  1.0000
  O2          0.30492      0.20737      0.51546  1.0000
  O3          0.89762      0.70580      0.18623  1.0000
  O1          0.36136      0.65280      0.24724  1.0000
  O1          0.35600      0.70902      0.58111  1.0000
  O1          0.30174      0.65085      0.91403  1.0000
  O1          0.65300      0.35561      0.75097  1.0000
  O1          0.65719      0.29598      0.08288  1.0000
  O1          0.71356      0.36231      0.41749  1.0000
  O3          0.35814      0.31439      0.96256  1.0000
  O3          0.69837      0.05228      0.29572  1.0000
  O3          0.96187      0.65437      0.62906  1.0000
  O3          0.64740      0.69804      0.45945  1.0000
  O3          0.31316      0.95650      0.79340  1.0000
  O3          0.06114      0.36608      0.12511  1.0000
  O3          0.34745      0.36356      0.35532  1.0000
  O3          0.02551      0.66891      0.02143  1.0000
  O3          0.64642      0.98466      0.68918  1.0000
  O3          0.66965      0.64055      0.85751  1.0000
  O3          0.97796      0.34439      0.52479  1.0000
  O3          0.36854      0.02949      0.19030  1.0000
  O1          0.77640      0.31679      0.00266  1.0000
  O1          0.71130      0.47602      0.33709  1.0000
  O1          0.54417      0.24048      0.67048  1.0000
  O1          0.23271      0.70280      0.50230  1.0000
  O1          0.31404      0.53860      0.83528  1.0000
  O3          0.48590      0.78944      0.17058  1.0000
  O1          0.29734      0.75831      0.31620  1.0000
  O3          0.47464      0.71551      0.98160  1.0000
  O3          0.24644      0.53641      0.64938  1.0000
  O3          0.71444      0.23971      0.81688  1.0000
  O3          0.53354      0.29896      0.48354  1.0000
  O1          0.76458      0.46761      0.15012  1.0000
  O3          0.77582      0.54016      0.03460  1.0000
  O3          0.48060      0.24805      0.36383  1.0000
  O3          0.76820      0.23433      0.69795  1.0000
  O3          0.22830      0.47261      0.52953  1.0000
  O3          0.54172      0.76325      0.86291  1.0000
  O3          0.25164      0.77976      0.19720  1.0000
  O3          0.55185      0.81628      0.30879  1.0000
  O3          0.26980      0.46050      0.97552  1.0000
  O3          0.19582      0.74120      0.64201  1.0000
  O3          0.45878      0.18848      0.80995  1.0000
  O3          0.73622      0.55430      0.47596  1.0000
  O3          0.82573      0.27321      0.14259  1.0000
  O3          0.21627      0.33259      0.89822  1.0000
  O2          0.67059      0.89115      0.23038  1.0000
  O3          0.12276      0.79773      0.56483  1.0000
  O3          0.79754      0.68161      0.39791  1.0000
  O3          0.33508      0.12408      0.73147  1.0000
  O3          0.89090      0.22128      0.06363  1.0000
  O2          0.34063      0.25269      0.43150  1.0000
  O3          0.92974      0.68651      0.09820  1.0000
  O2          0.75667      0.08795      0.76561  1.0000
  O2          0.67183      0.75406      0.93247  1.0000
  O2          0.08995      0.34163      0.59963  1.0000
  O3          0.24155      0.91877      0.26414  1.0000
  O3          0.56485      0.56565      0.99244  1.0000
  O1          0.45195      0.01597      0.32753  1.0000
  O3          0.00654      0.44713      0.65925  1.0000
  O3          0.43853      0.44583      0.48973  1.0000
  O3          0.56402      0.99868      0.82403  1.0000
  O1          0.02225      0.56966      0.15966  1.0000
  O1          0.58774      0.61833      0.33599  1.0000
  O1          0.04013      0.43254      0.00335  1.0000
  O1          0.39598      0.97392      0.66968  1.0000
  O1          0.42997      0.38884      0.83854  1.0000
  O1          0.96669      0.58509      0.50522  1.0000
  O3          0.62257      0.03600      0.17504  1.0000
  O1          0.58756      0.17662      0.25378  1.0000
  O1          0.83761      0.41937      0.58795  1.0000
  O1          0.59470      0.42559      0.92123  1.0000
  O1          0.42698      0.83697      0.75041  1.0000
  O1          0.17810      0.60258      0.08318  1.0000
  O1          0.41523      0.58270      0.41636  1.0000
  F           0.47181      0.93903      0.24171  1.0000
  F           0.07517      0.55231      0.57053  1.0000
  F           0.46132      0.52897      0.90384  1.0000
  F           0.53204      0.07604      0.73658  1.0000
  F           0.93899      0.46905      0.07161  1.0000
  F           0.55168      0.48026      0.40283  1.0000
