data_cif

_audit_creation_method             'generated by GULP'

_symmetry_space_group_name_H-M     'P 1'
_symmetry_Int_Tables_number        1
_symmetry_cell_setting             triclinic

_cell_length_a                       12.2243
_cell_length_b                       12.2544
_cell_length_c                       30.0962
_cell_angle_alpha                   90.2008
_cell_angle_beta                    89.8683
_cell_angle_gamma                  119.9961

loop_
_atom_site_label
_atom_site_fract_x
_atom_site_fract_y
_atom_site_fract_z
_atom_site_occupancy
  Ge          0.69960      0.37570      0.03389  1.0000
  Ge          0.61625      0.28847      0.36617  1.0000
  Ge          0.69132      0.27079      0.69991  1.0000
  Ge          0.31245      0.59674      0.53618  1.0000
  Ge          0.39507      0.68274      0.87150  1.0000
  Ge          0.31781      0.67961      0.20023  1.0000
  Ge          0.37281      0.67652      0.30543  1.0000
  Si          0.33677      0.62062      0.97474  1.0000
  Ge          0.30341      0.64670      0.64123  1.0000
  Ge          0.64358      0.29297      0.80443  1.0000
  Ge          0.68374      0.35361      0.46980  1.0000
  Ge          0.70221      0.31206      0.13767  1.0000
  Ge          0.52874      0.42301      0.96693  1.0000
  Ge          0.56915      0.06715      0.30083  1.0000
  Ge          0.90982      0.44855      0.63252  1.0000
  Ge          0.48483      0.54853      0.46936  1.0000
  Ge          0.44317      0.90396      0.80743  1.0000
  Ge          0.09486      0.50747      0.13490  1.0000
  Ge          0.41421      0.50030      0.37011  1.0000
  Ge          0.11591      0.57384      0.03534  1.0000
  Ge          0.47710      0.86093      0.70873  1.0000
  Ge          0.59915      0.46911      0.86852  1.0000
  Ge          0.90565      0.39502      0.53249  1.0000
  Ge          0.52724      0.08840      0.20142  1.0000
  Ge          0.30488      0.39272      0.85783  1.0000
  Si          0.60478      0.87705      0.19034  1.0000
  Si          0.11324      0.68469      0.52246  1.0000
  Ge          0.70760      0.58142      0.35687  1.0000
  Si          0.40292      0.07338      0.69290  1.0000
  Ge          0.90076      0.28282      0.02334  1.0000
  Ge          0.40025      0.27162      0.48972  1.0000
  Ge          0.90563      0.59640      0.15632  1.0000
  Ge          0.72231      0.08840      0.82630  1.0000
  Ge          0.61817      0.69955      0.99008  1.0000
  Si          0.09971      0.36526      0.65655  1.0000
  Ge          0.29233      0.88188      0.32279  1.0000
  Si          0.25060      0.33305      0.96021  1.0000
  Si          0.66177      0.88232      0.29219  1.0000
  Ge          0.09396      0.72776      0.62491  1.0000
  Si          0.76416      0.64305      0.45895  1.0000
  Si          0.35215      0.08802      0.79399  1.0000
  Si          0.90975      0.22934      0.12538  1.0000
  Si          0.33489      0.22203      0.38727  1.0000
  Si          0.91875      0.65728      0.05327  1.0000
  Si          0.75982      0.05836      0.72345  1.0000
  Si          0.67883      0.74843      0.88729  1.0000
  Si          0.09933      0.31118      0.55448  1.0000
  Si          0.24670      0.89322      0.21971  1.0000
  Si          0.97660      0.10818      0.97550  1.0000
  Si          0.88607      0.83156      0.30785  1.0000
  Si          0.15533      0.00589      0.64331  1.0000
  Si          0.03897      0.85926      0.47593  1.0000
  Si          0.12948      0.14301      0.80784  1.0000
  Si          0.85550      0.95628      0.14243  1.0000
  Si          0.11363      0.94660      0.37547  1.0000
  Si          0.86343      0.87806      0.04179  1.0000
  Si          0.03561      0.12420      0.70795  1.0000
  Si          0.90285      0.02311      0.87562  1.0000
  Si          0.15812      0.09098      0.54274  1.0000
  Si          0.97259      0.84115      0.20794  1.0000
  O2          0.95117      0.99881      0.01091  1.0000
  O2          0.99262      0.91321      0.34455  1.0000
  O2          0.08043      0.04828      0.67655  1.0000
  O2          0.07207      0.97098      0.51121  1.0000
  O2          0.01927      0.05551      0.84247  1.0000
  O2          0.93807      0.92700      0.17680  1.0000
  O1          0.33185      0.54106      0.33444  1.0000
  O1          0.43367      0.73497      0.67423  1.0000
  O3          0.24483      0.65691      0.00047  1.0000
  O1          0.68169      0.43099      0.83145  1.0000
  O1          0.56589      0.20871      0.16507  1.0000
  O1          0.78787      0.31741      0.49472  1.0000
  O1          0.57670      0.33650      0.00114  1.0000
  O1          0.76816      0.38587      0.66380  1.0000
  O1          0.65631      0.20501      0.33348  1.0000
  O1          0.43562      0.63590      0.50344  1.0000
  O1          0.23369      0.55718      0.16730  1.0000
  O1          0.35585      0.77420      0.84360  1.0000
  O2          0.12125      0.22065      0.98175  1.0000
  O2          0.78214      0.87547      0.31077  1.0000
  O3          0.09016      0.85810      0.64655  1.0000
  O2          0.88998      0.76246      0.47979  1.0000
  O2          0.23505      0.10177      0.81190  1.0000
  O2          0.90430      0.10411      0.14583  1.0000
  O2          0.21352      0.09460      0.36792  1.0000
  O2          0.91174      0.77822      0.03405  1.0000
  O2          0.88475      0.05996      0.70298  1.0000
  O2          0.79947      0.87612      0.86770  1.0000
  O2          0.10849      0.19066      0.53678  1.0000
  O2          0.11988      0.88649      0.19910  1.0000
  O2          0.94969      0.86251      0.25917  1.0000
  O2          0.14416      0.04671      0.59349  1.0000
  O2          0.95361      0.04855      0.92622  1.0000
  O2          0.07275      0.11634      0.75834  1.0000
  O2          0.87754      0.92043      0.09312  1.0000
  O2          0.07215      0.91906      0.42689  1.0000
  O3          0.89130      0.17012      0.98481  1.0000
  O3          0.81711      0.68456      0.31766  1.0000
  O2          0.30347      0.06909      0.65600  1.0000
  O2          0.11410      0.78402      0.48555  1.0000
  O3          0.19354      0.28864      0.81918  1.0000
  O2          0.70661      0.87892      0.15460  1.0000
  O3          0.17632      0.86605      0.36080  1.0000
  O3          0.71885      0.81485      0.02800  1.0000
  O2          0.10434      0.26960      0.69287  1.0000
  O3          0.83968      0.10553      0.86391  1.0000
  O3          0.30160      0.15696      0.52821  1.0000
  O3          0.89076      0.69663      0.19465  1.0000
  O1          0.30421      0.63063      0.25458  1.0000
  O1          0.35873      0.63233      0.59101  1.0000
  O3          0.36541      0.68782      0.92768  1.0000
  O1          0.71108      0.33035      0.75319  1.0000
  O1          0.65497      0.34493      0.08897  1.0000
  O1          0.64665      0.27333      0.42100  1.0000
  O3          0.36560      0.32368      0.98019  1.0000
  O3          0.66861      0.00414      0.31367  1.0000
  O1          0.96137      0.60524      0.64699  1.0000
  O3          0.64740      0.64468      0.48204  1.0000
  O3          0.34485      0.96959      0.81824  1.0000
  O3          0.02857      0.34584      0.14813  1.0000
  O3          0.31253      0.33818      0.37825  1.0000
  O3          0.05575      0.67650      0.04213  1.0000
  O3          0.64076      0.92205      0.71433  1.0000
  O3          0.69944      0.63243      0.87572  1.0000
  O3          0.96544      0.29262      0.54020  1.0000
  O3          0.36442      0.02878      0.20861  1.0000
  O1          0.75904      0.27554      0.02188  1.0000
  O1          0.71629      0.44789      0.35448  1.0000
  O3          0.52944      0.20481      0.68832  1.0000
  O3          0.24742      0.69255      0.52290  1.0000
  O1          0.29873      0.52757      0.85469  1.0000
  O3          0.47907      0.74408      0.18706  1.0000
  O1          0.30864      0.75317      0.33377  1.0000
  O3          0.46811      0.67587      0.00137  1.0000
  O3          0.21903      0.50077      0.66748  1.0000
  O1          0.70921      0.22047      0.83434  1.0000
  O1          0.54777      0.29415      0.50104  1.0000
  O1          0.77918      0.44993      0.16779  1.0000
  O3          0.81980      0.53185      0.02767  1.0000
  O3          0.45971      0.25259      0.36005  1.0000
  O3          0.73363      0.15551      0.69661  1.0000
  O3          0.20135      0.43755      0.53056  1.0000
  O3          0.55137      0.72073      0.86283  1.0000
  O3          0.27503      0.79440      0.19476  1.0000
  O3          0.53774      0.75450      0.30712  1.0000
  O2          0.25901      0.46633      0.97365  1.0000
  O1          0.23074      0.73620      0.64341  1.0000
  O3          0.47875      0.21668      0.80625  1.0000
  O3          0.77080      0.51791      0.46991  1.0000
  O3          0.77856      0.22390      0.13706  1.0000
  O3          0.24148      0.31243      0.90722  1.0000
  O2          0.67278      0.89538      0.23825  1.0000
  O3          0.08708      0.73908      0.56754  1.0000
  O3          0.76580      0.66505      0.40606  1.0000
  O2          0.33560      0.06238      0.74056  1.0000
  O3          0.92897      0.22720      0.07241  1.0000
  O3          0.34023      0.19493      0.43917  1.0000
  O3          0.89159      0.65645      0.10554  1.0000
  O3          0.79195      0.09232      0.77501  1.0000
  O3          0.67856      0.77503      0.93964  1.0000
  O2          0.11698      0.31606      0.60797  1.0000
  O3          0.21768      0.86703      0.27182  1.0000
  O1          0.61876      0.56371      0.99866  1.0000
  O1          0.42872      0.01887      0.33257  1.0000
  O3          0.96904      0.36296      0.66249  1.0000
  O1          0.39642      0.40660      0.49906  1.0000
  O1          0.58481      0.95573      0.83854  1.0000
  O1          0.04326      0.59700      0.16534  1.0000
  O1          0.55731      0.54554      0.34427  1.0000
  O1          0.01555      0.43234      0.00974  1.0000
  O3          0.43152      0.96114      0.68392  1.0000
  O1          0.45269      0.42188      0.84478  1.0000
  O3          0.00874      0.54279      0.50994  1.0000
  O3          0.57253      0.98533      0.17882  1.0000
  O1          0.59869      0.15035      0.25094  1.0000
  O1          0.83555      0.39803      0.58117  1.0000
  O1          0.58914      0.39519      0.91771  1.0000
  O1          0.41083      0.80983      0.75963  1.0000
  O1          0.17614      0.56149      0.08484  1.0000
  O1          0.42871      0.57513      0.41979  1.0000
  F           0.46320      0.91304      0.26660  1.0000
  F           0.07309      0.51942      0.59819  1.0000
  F           0.48115      0.52262      0.93039  1.0000
  F           0.54741      0.04964      0.76997  1.0000
  F           0.93763      0.45522      0.09822  1.0000
  F           0.53778      0.44507      0.43169  1.0000
