data_cif

_audit_creation_method             'generated by GULP'

_symmetry_space_group_name_H-M     'P 1'
_symmetry_Int_Tables_number        1
_symmetry_cell_setting             triclinic

_cell_length_a                       12.2427
_cell_length_b                       12.2475
_cell_length_c                       30.1001
_cell_angle_alpha                   89.1469
_cell_angle_beta                    90.1791
_cell_angle_gamma                  120.2436

loop_
_atom_site_label
_atom_site_fract_x
_atom_site_fract_y
_atom_site_fract_z
_atom_site_occupancy
  Ge          0.69960      0.37570      0.03389  1.0000
  Ge          0.65991      0.33627      0.36692  1.0000
  Ge          0.68327      0.30317      0.70380  1.0000
  Ge          0.31549      0.63399      0.52616  1.0000
  Si          0.38643      0.68656      0.85927  1.0000
  Ge          0.35627      0.71277      0.19360  1.0000
  Ge          0.40849      0.69353      0.29787  1.0000
  Ge          0.31325      0.62839      0.96250  1.0000
  Ge          0.31883      0.68841      0.63063  1.0000
  Ge          0.63683      0.32011      0.80343  1.0000
  Ge          0.71107      0.39476      0.47123  1.0000
  Ge          0.71981      0.31442      0.13764  1.0000
  Ge          0.52328      0.42076      0.97128  1.0000
  Ge          0.61055      0.11470      0.30451  1.0000
  Ge          0.90736      0.47527      0.63934  1.0000
  Ge          0.49169      0.59199      0.46200  1.0000
  Ge          0.43950      0.90960      0.79751  1.0000
  Ge          0.14313      0.54409      0.12439  1.0000
  Ge          0.45789      0.51909      0.36428  1.0000
  Ge          0.09058      0.57748      0.02664  1.0000
  Ge          0.49716      0.91347      0.69288  1.0000
  Ge          0.58632      0.48391      0.87178  1.0000
  Ge          0.92823      0.43936      0.53848  1.0000
  Ge          0.54392      0.09403      0.20599  1.0000
  Ge          0.31032      0.40537      0.84628  1.0000
  Si          0.64119      0.91886      0.18074  1.0000
  Ge          0.11016      0.71600      0.51340  1.0000
  Si          0.73645      0.61492      0.34526  1.0000
  Ge          0.41218      0.12217      0.67829  1.0000
  Ge          0.90447      0.29728      0.01008  1.0000
  Ge          0.41454      0.29990      0.47728  1.0000
  Ge          0.92344      0.61033      0.14311  1.0000
  Si          0.72654      0.12166      0.80991  1.0000
  Ge          0.60240      0.71416      0.98165  1.0000
  Si          0.12551      0.40433      0.64474  1.0000
  Ge          0.31779      0.89463      0.31316  1.0000
  Si          0.24509      0.34306      0.94862  1.0000
  Si          0.69105      0.91760      0.28261  1.0000
  Si          0.10546      0.76031      0.61668  1.0000
  Si          0.77234      0.67441      0.44698  1.0000
  Si          0.35309      0.10652      0.78153  1.0000
  Si          0.94041      0.25699      0.11107  1.0000
  Si          0.36459      0.24181      0.37521  1.0000
  Si          0.90288      0.66451      0.04083  1.0000
  Si          0.77928      0.11568      0.70807  1.0000
  Ge          0.67277      0.76467      0.87790  1.0000
  Si          0.11196      0.34534      0.54305  1.0000
  Si          0.26537      0.91117      0.21127  1.0000
  Si          0.96726      0.11851      0.96051  1.0000
  Si          0.91080      0.86144      0.29480  1.0000
  Si          0.15818      0.03452      0.62822  1.0000
  Si          0.04813      0.89789      0.46039  1.0000
  Si          0.13479      0.16146      0.79440  1.0000
  Si          0.88406      0.98420      0.12892  1.0000
  Si          0.14162      0.96811      0.36051  1.0000
  Si          0.85161      0.88866      0.02922  1.0000
  Si          0.04877      0.15517      0.69409  1.0000
  Si          0.89637      0.04187      0.85912  1.0000
  Si          0.16257      0.12178      0.52826  1.0000
  Si          0.99072      0.85641      0.19439  1.0000
  O2          0.93371      0.00082      0.99371  1.0000
  O2          0.03146      0.94472      0.32556  1.0000
  O2          0.07579      0.06903      0.66125  1.0000
  O2          0.07785      0.01384      0.49274  1.0000
  O2          0.01756      0.08256      0.82786  1.0000
  O2          0.96617      0.94511      0.16020  1.0000
  O1          0.37445      0.56428      0.32707  1.0000
  O1          0.44775      0.77831      0.66244  1.0000
  O1          0.21771      0.66562      0.98845  1.0000
  O1          0.67269      0.42803      0.84199  1.0000
  O1          0.59791      0.22976      0.17111  1.0000
  O1          0.78874      0.35359      0.50623  1.0000
  O1          0.55928      0.33551      0.00813  1.0000
  O1          0.79298      0.44409      0.67565  1.0000
  O1          0.69778      0.23817      0.33928  1.0000
  O1          0.44932      0.67569      0.49595  1.0000
  O1          0.27283      0.59056      0.15775  1.0000
  O3          0.35202      0.77714      0.83039  1.0000
  O2          0.11487      0.22279      0.96753  1.0000
  O2          0.81500      0.91421      0.30044  1.0000
  O2          0.11213      0.88705      0.63695  1.0000
  O2          0.89863      0.79712      0.46538  1.0000
  O2          0.23039      0.10789      0.80209  1.0000
  O2          0.94589      0.13508      0.13161  1.0000
  O2          0.25296      0.11291      0.35352  1.0000
  O2          0.88973      0.78179      0.02162  1.0000
  O2          0.90021      0.10608      0.69149  1.0000
  O3          0.80159      0.89602      0.85297  1.0000
  O2          0.11717      0.22443      0.52507  1.0000
  O2          0.13915      0.90376      0.19058  1.0000
  O2          0.95457      0.87465      0.24397  1.0000
  O2          0.13283      0.05889      0.57747  1.0000
  O2          0.94174      0.07014      0.91009  1.0000
  O2          0.08579      0.13924      0.74391  1.0000
  O2          0.88798      0.94377      0.07868  1.0000
  O2          0.08235      0.94738      0.40975  1.0000
  O3          0.88465      0.18133      0.97203  1.0000
  O2          0.84237      0.71462      0.31019  1.0000
  O3          0.30433      0.11874      0.63929  1.0000
  O3          0.12589      0.83222      0.47511  1.0000
  O3          0.20445      0.30767      0.80566  1.0000
  O2          0.73900      0.91396      0.14549  1.0000
  O3          0.20279      0.88260      0.35157  1.0000
  O3          0.70333      0.82336      0.02142  1.0000
  O2          0.12751      0.30336      0.68015  1.0000
  O2          0.82384      0.11792      0.84602  1.0000
  O3          0.30898      0.19024      0.51699  1.0000
  O3          0.91344      0.71205      0.18139  1.0000
  O1          0.37389      0.65321      0.24258  1.0000
  O1          0.36731      0.70443      0.57668  1.0000
  O3          0.31684      0.66217      0.90590  1.0000
  O1          0.67982      0.38213      0.75103  1.0000
  O1          0.66490      0.34503      0.08860  1.0000
  O1          0.73085      0.36219      0.41698  1.0000
  O3          0.36008      0.32335      0.96269  1.0000
  O3          0.71007      0.05132      0.29625  1.0000
  O3          0.97402      0.64104      0.62940  1.0000
  O3          0.65567      0.69442      0.45641  1.0000
  O3          0.33918      0.97037      0.79083  1.0000
  O3          0.05705      0.37951      0.13229  1.0000
  O3          0.35937      0.35647      0.35178  1.0000
  O3          0.03785      0.68847      0.02512  1.0000
  O3          0.65988      0.99671      0.68568  1.0000
  O1          0.68591      0.64307      0.85776  1.0000
  O3          0.98863      0.33914      0.52355  1.0000
  O3          0.38334      0.03381      0.19019  1.0000
  O1          0.75880      0.28572      0.01257  1.0000
  O3          0.72284      0.47915      0.33740  1.0000
  O1          0.55213      0.25566      0.66787  1.0000
  O1          0.23744      0.69895      0.49953  1.0000
  O3          0.33353      0.55459      0.83383  1.0000
  O3          0.50332      0.80417      0.16819  1.0000
  O1          0.31194      0.75300      0.31396  1.0000
  O1          0.46725      0.72138      0.98096  1.0000
  O3          0.26120      0.53096      0.64602  1.0000
  O3          0.73493      0.25390      0.81375  1.0000
  O1          0.55015      0.29604      0.48240  1.0000
  O1          0.81603      0.46215      0.16057  1.0000
  O3          0.79249      0.53617      0.01912  1.0000
  O3          0.49569      0.24526      0.36475  1.0000
  O3          0.79167      0.24519      0.69210  1.0000
  O3          0.23903      0.46934      0.52616  1.0000
  O3          0.53922      0.76764      0.85983  1.0000
  O3          0.26487      0.78383      0.19776  1.0000
  O3          0.56536      0.81090      0.30629  1.0000
  O3          0.26660      0.46953      0.97135  1.0000
  O3          0.21546      0.74300      0.63966  1.0000
  O3          0.47561      0.20657      0.80740  1.0000
  O3          0.74615      0.55122      0.47456  1.0000
  O3          0.80907      0.24539      0.12426  1.0000
  O3          0.22762      0.34381      0.89561  1.0000
  O2          0.68622      0.89602      0.22939  1.0000
  O3          0.12972      0.79022      0.56424  1.0000
  O2          0.79589      0.66613      0.39438  1.0000
  O3          0.34866      0.13068      0.72918  1.0000
  O3          0.94914      0.24847      0.05823  1.0000
  O3          0.33638      0.23420      0.42797  1.0000
  O3          0.88570      0.65989      0.09405  1.0000
  O2          0.77250      0.09913      0.76210  1.0000
  O1          0.69178      0.78000      0.93426  1.0000
  O2          0.10342      0.33607      0.59723  1.0000
  O3          0.25765      0.92140      0.26452  1.0000
  O1          0.56736      0.56423      0.99585  1.0000
  O1          0.46551      0.01044      0.32861  1.0000
  O3          0.02402      0.44239      0.65835  1.0000
  O1          0.44149      0.44764      0.48851  1.0000
  O3          0.58333      0.01244      0.82130  1.0000
  O1          0.06824      0.62291      0.14338  1.0000
  O3          0.60618      0.60985      0.33586  1.0000
  O1          0.01992      0.44239      0.99264  1.0000
  O1          0.42090      0.98712      0.67102  1.0000
  O1          0.44612      0.40236      0.84049  1.0000
  O1          0.97167      0.57953      0.50610  1.0000
  O3          0.64262      0.04876      0.17680  1.0000
  O1          0.59869      0.17877      0.25518  1.0000
  O1          0.84948      0.40703      0.58900  1.0000
  O1          0.60193      0.42801      0.92338  1.0000
  O1          0.45789      0.86082      0.74667  1.0000
  O1          0.19054      0.58760      0.07070  1.0000
  O1          0.42420      0.58028      0.41125  1.0000
  F           0.48620      0.94191      0.24180  1.0000
  F           0.08839      0.54648      0.56889  1.0000
  F           0.48534      0.54802      0.90721  1.0000
  F           0.58224      0.14401      0.73484  1.0000
  F           0.94885      0.47538      0.06827  1.0000
  F           0.54817      0.46580      0.40519  1.0000
