data_cif

_audit_creation_method             'generated by GULP'

_symmetry_space_group_name_H-M     'P 1'
_symmetry_Int_Tables_number        1
_symmetry_cell_setting             triclinic

_cell_length_a                       12.2429
_cell_length_b                       12.2241
_cell_length_c                       30.0247
_cell_angle_alpha                   89.1412
_cell_angle_beta                    90.9462
_cell_angle_gamma                  120.0532

loop_
_atom_site_label
_atom_site_fract_x
_atom_site_fract_y
_atom_site_fract_z
_atom_site_occupancy
  Ge          0.69960      0.37570      0.03389  1.0000
  Ge          0.63467      0.32253      0.37118  1.0000
  Ge          0.68398      0.29086      0.70887  1.0000
  Ge          0.31998      0.62142      0.54133  1.0000
  Ge          0.37540      0.67357      0.87764  1.0000
  Ge          0.32643      0.68451      0.20784  1.0000
  Ge          0.39454      0.69848      0.31297  1.0000
  Ge          0.30581      0.62677      0.97734  1.0000
  Ge          0.31088      0.67258      0.64541  1.0000
  Ge          0.64332      0.32463      0.80691  1.0000
  Ge          0.70114      0.37581      0.47645  1.0000
  Ge          0.68450      0.30099      0.13817  1.0000
  Si          0.52686      0.42927      0.97194  1.0000
  Ge          0.59046      0.10648      0.30395  1.0000
  Ge          0.90254      0.46189      0.64282  1.0000
  Ge          0.49770      0.57957      0.47902  1.0000
  Ge          0.44090      0.90395      0.81559  1.0000
  Ge          0.10100      0.51122      0.14535  1.0000
  Ge          0.44402      0.52372      0.37911  1.0000
  Ge          0.08878      0.56872      0.04557  1.0000
  Ge          0.49068      0.89538      0.71021  1.0000
  Ge          0.58415      0.49377      0.86919  1.0000
  Ge          0.92734      0.42614      0.54177  1.0000
  Ge          0.51781      0.07633      0.20443  1.0000
  Ge          0.28915      0.40193      0.85242  1.0000
  Ge          0.60899      0.88893      0.18680  1.0000
  Ge          0.11792      0.70313      0.52219  1.0000
  Ge          0.71785      0.61019      0.35565  1.0000
  Ge          0.40719      0.10380      0.68989  1.0000
  Ge          0.90347      0.29209      0.01935  1.0000
  Si          0.41646      0.28917      0.48908  1.0000
  Ge          0.88784      0.59175      0.15426  1.0000
  Ge          0.73251      0.12462      0.82067  1.0000
  Ge          0.60059      0.71457      0.98465  1.0000
  Si          0.11693      0.38738      0.65403  1.0000
  Si          0.30303      0.89533      0.31913  1.0000
  Si          0.24647      0.34673      0.95586  1.0000
  Si          0.67654      0.91116      0.28986  1.0000
  Si          0.10081      0.74611      0.62466  1.0000
  Si          0.77518      0.66360      0.45864  1.0000
  Si          0.35978      0.10722      0.79230  1.0000
  Si          0.90266      0.23441      0.12263  1.0000
  Si          0.34965      0.24454      0.38715  1.0000
  Si          0.90497      0.66321      0.05188  1.0000
  Si          0.77534      0.09928      0.71785  1.0000
  Si          0.66211      0.77710      0.88167  1.0000
  Si          0.11268      0.33356      0.55219  1.0000
  Si          0.24135      0.88949      0.21728  1.0000
  Si          0.97996      0.11823      0.96976  1.0000
  Si          0.89684      0.85661      0.30374  1.0000
  Si          0.15603      0.02088      0.63652  1.0000
  Si          0.05173      0.88279      0.47005  1.0000
  Si          0.12999      0.14645      0.80293  1.0000
  Si          0.85422      0.96047      0.13661  1.0000
  Si          0.13124      0.96962      0.36954  1.0000
  Si          0.85390      0.88565      0.03599  1.0000
  Si          0.04149      0.13688      0.70230  1.0000
  Si          0.90285      0.04247      0.86923  1.0000
  Si          0.16655      0.11344      0.53614  1.0000
  Si          0.96611      0.84170      0.20367  1.0000
  O2          0.94367      0.00204      0.00375  1.0000
  O2          0.01805      0.94174      0.33527  1.0000
  O2          0.07153      0.05617      0.66777  1.0000
  O2          0.08696      0.00518      0.50013  1.0000
  O2          0.01440      0.06186      0.83627  1.0000
  O2          0.94290      0.93041      0.16900  1.0000
  O1          0.35593      0.57897      0.34805  1.0000
  O1          0.43291      0.75522      0.68126  1.0000
  O1          0.22782      0.66015      0.01439  1.0000
  O1          0.67490      0.44768      0.84137  1.0000
  O1          0.55893      0.20836      0.16860  1.0000
  O1          0.78877      0.33760      0.50825  1.0000
  O3          0.56824      0.34617      0.00104  1.0000
  O1          0.78476      0.42655      0.67752  1.0000
  O1          0.67057      0.22782      0.34026  1.0000
  O1          0.45978      0.65841      0.51654  1.0000
  O1          0.22242      0.54549      0.18196  1.0000
  O1          0.34478      0.78087      0.84701  1.0000
  O2          0.12884      0.21868      0.97715  1.0000
  O2          0.79861      0.90706      0.31067  1.0000
  O2          0.10456      0.87213      0.64437  1.0000
  O2          0.90437      0.78185      0.47887  1.0000
  O2          0.23599      0.10716      0.81235  1.0000
  O2          0.89390      0.10673      0.14386  1.0000
  O2          0.22446      0.11955      0.36932  1.0000
  O2          0.89664      0.78178      0.03085  1.0000
  O2          0.89245      0.08518      0.69942  1.0000
  O2          0.78822      0.89962      0.86241  1.0000
  O2          0.11493      0.21073      0.53400  1.0000
  O2          0.11120      0.87757      0.19867  1.0000
  O2          0.94248      0.87486      0.25291  1.0000
  O2          0.14189      0.05058      0.58495  1.0000
  O2          0.95490      0.06436      0.91981  1.0000
  O2          0.08108      0.11787      0.75192  1.0000
  O2          0.87825      0.93780      0.08611  1.0000
  O2          0.07425      0.92360      0.41836  1.0000
  O3          0.89965      0.18464      0.98025  1.0000
  O3          0.83104      0.71183      0.31718  1.0000
  O3          0.30048      0.10055      0.64998  1.0000
  O3          0.13383      0.82082      0.48404  1.0000
  O3          0.18703      0.29266      0.81332  1.0000
  O3          0.70991      0.87439      0.14940  1.0000
  O2          0.20727      0.89945      0.35538  1.0000
  O3          0.70792      0.82096      0.02370  1.0000
  O2          0.11635      0.28603      0.69000  1.0000
  O3          0.84880      0.13411      0.85793  1.0000
  O2          0.31585      0.18868      0.52500  1.0000
  O3          0.88114      0.69486      0.19306  1.0000
  O1          0.35599      0.64401      0.25910  1.0000
  O1          0.36564      0.69295      0.59220  1.0000
  O1          0.29138      0.67168      0.92427  1.0000
  O1          0.68355      0.38018      0.75405  1.0000
  O1          0.64284      0.29476      0.08238  1.0000
  O1          0.70787      0.34113      0.42140  1.0000
  O2          0.37528      0.34137      0.96421  1.0000
  O3          0.69458      0.04814      0.29834  1.0000
  O3          0.96718      0.62711      0.63433  1.0000
  O3          0.65952      0.68304      0.47136  1.0000
  O3          0.34848      0.97436      0.80198  1.0000
  O3          0.03923      0.34955      0.13520  1.0000
  O3          0.34271      0.36147      0.36651  1.0000
  O3          0.02597      0.66811      0.03135  1.0000
  O3          0.65035      0.98048      0.69756  1.0000
  O3          0.65946      0.65568      0.86030  1.0000
  O3          0.99267      0.32933      0.52942  1.0000
  O3          0.35351      0.01044      0.19407  1.0000
  O1          0.77682      0.31275      0.00616  1.0000
  O1          0.69902      0.46490      0.34319  1.0000
  O1          0.54821      0.22955      0.67505  1.0000
  O1          0.24821      0.68892      0.51128  1.0000
  O1          0.29452      0.54128      0.84215  1.0000
  O1          0.46387      0.75668      0.17781  1.0000
  O3          0.29791      0.76338      0.32444  1.0000
  O1          0.46756      0.72104      0.99076  1.0000
  O3          0.25217      0.51303      0.65777  1.0000
  O1          0.74433      0.26961      0.82303  1.0000
  O3          0.54083      0.27895      0.49064  1.0000
  O1          0.74414      0.45808      0.15343  1.0000
  O3          0.77541      0.53883      0.03715  1.0000
  O3          0.47008      0.23809      0.37046  1.0000
  O3          0.78909      0.22927      0.70044  1.0000
  O3          0.24310      0.45654      0.53865  1.0000
  O3          0.54237      0.78701      0.86620  1.0000
  O3          0.23825      0.76114      0.20413  1.0000
  O3          0.55217      0.81549      0.31682  1.0000
  O3          0.25889      0.46517      0.98086  1.0000
  O3          0.20546      0.72613      0.65124  1.0000
  O3          0.48303      0.21857      0.81613  1.0000
  O3          0.74606      0.53409      0.48258  1.0000
  O3          0.80235      0.26203      0.14577  1.0000
  O3          0.21643      0.33942      0.90347  1.0000
  O3          0.67360      0.87906      0.23810  1.0000
  O3          0.13209      0.77802      0.57273  1.0000
  O3          0.79840      0.66861      0.40604  1.0000
  O3          0.35436      0.13121      0.73956  1.0000
  O3          0.87990      0.21097      0.06983  1.0000
  O2          0.34409      0.24422      0.44130  1.0000
  O3          0.91757      0.67883      0.10533  1.0000
  O3          0.78142      0.09074      0.77155  1.0000
  O3          0.67946      0.77737      0.93527  1.0000
  O2          0.09717      0.31989      0.60618  1.0000
  O2          0.24714      0.90750      0.27110  1.0000
  O3          0.56443      0.56054      0.99597  1.0000
  O3          0.44417      0.00683      0.32826  1.0000
  O3          0.01488      0.42663      0.66519  1.0000
  O3          0.45382      0.43068      0.50144  1.0000
  O1          0.58319      0.01983      0.83734  1.0000
  O1          0.99846      0.55176      0.16929  1.0000
  O1          0.58200      0.61395      0.34683  1.0000
  O1          0.04024      0.43068      0.01357  1.0000
  O1          0.40823      0.96391      0.68816  1.0000
  O1          0.43507      0.41558      0.84642  1.0000
  O1          0.97971      0.56799      0.51092  1.0000
  O1          0.60592      0.02348      0.17423  1.0000
  O1          0.57839      0.16447      0.25324  1.0000
  O1          0.84799      0.39529      0.59157  1.0000
  O3          0.59507      0.45923      0.92449  1.0000
  O1          0.47015      0.85679      0.76498  1.0000
  O1          0.16547      0.59162      0.09687  1.0000
  O1          0.42138      0.57417      0.43030  1.0000
  F           0.47348      0.92422      0.24215  1.0000
  F           0.09006      0.53556      0.57683  1.0000
  F           0.43813      0.58157      0.91062  1.0000
  F           0.59033      0.14135      0.74789  1.0000
  F           0.92848      0.46156      0.07876  1.0000
  F           0.55350      0.47092      0.41201  1.0000
