data_cif

_audit_creation_method             'generated by GULP'

_symmetry_space_group_name_H-M     'P 1'
_symmetry_Int_Tables_number        1
_symmetry_cell_setting             triclinic

_cell_length_a                       12.1943
_cell_length_b                       12.2252
_cell_length_c                       30.0162
_cell_angle_alpha                   90.8240
_cell_angle_beta                    89.6602
_cell_angle_gamma                  119.8817

loop_
_atom_site_label
_atom_site_fract_x
_atom_site_fract_y
_atom_site_fract_z
_atom_site_occupancy
  Ge          0.69960      0.37570      0.03389  1.0000
  Ge          0.64121      0.33778      0.36629  1.0000
  Ge          0.69860      0.33377      0.69793  1.0000
  Ge          0.31334      0.63404      0.52154  1.0000
  Ge          0.39248      0.68635      0.85432  1.0000
  Ge          0.33343      0.71025      0.18414  1.0000
  Ge          0.38113      0.69626      0.28885  1.0000
  Si          0.32001      0.63731      0.95636  1.0000
  Ge          0.33729      0.71423      0.62569  1.0000
  Ge          0.62978      0.31348      0.80292  1.0000
  Ge          0.70520      0.39021      0.46656  1.0000
  Ge          0.68900      0.31328      0.13377  1.0000
  Ge          0.53039      0.43009      0.97206  1.0000
  Ge          0.58187      0.10970      0.30347  1.0000
  Ge          0.92146      0.50691      0.63562  1.0000
  Ge          0.48716      0.58262      0.45549  1.0000
  Ge          0.43680      0.90531      0.78926  1.0000
  Ge          0.10673      0.53618      0.12039  1.0000
  Ge          0.43245      0.51968      0.35083  1.0000
  Ge          0.09096      0.58389      0.01584  1.0000
  Ge          0.50937      0.94117      0.69021  1.0000
  Ge          0.58113      0.48691      0.87043  1.0000
  Ge          0.92277      0.44458      0.53552  1.0000
  Ge          0.52641      0.09617      0.20180  1.0000
  Ge          0.30754      0.39751      0.84195  1.0000
  Ge          0.62214      0.91654      0.17387  1.0000
  Ge          0.10951      0.71784      0.50834  1.0000
  Ge          0.72893      0.60542      0.33839  1.0000
  Ge          0.41715      0.12880      0.67373  1.0000
  Ge          0.88172      0.28780      0.00557  1.0000
  Si          0.41412      0.29784      0.47020  1.0000
  Ge          0.88975      0.60976      0.13653  1.0000
  Si          0.72330      0.11672      0.80626  1.0000
  Ge          0.60288      0.72349      0.97545  1.0000
  Ge          0.13530      0.42514      0.64248  1.0000
  Si          0.29233      0.89010      0.30635  1.0000
  Si          0.25074      0.35357      0.94504  1.0000
  Si          0.66800      0.91229      0.27754  1.0000
  Si          0.11869      0.78159      0.61137  1.0000
  Si          0.77162      0.67011      0.44145  1.0000
  Si          0.34934      0.09987      0.77645  1.0000
  Si          0.90760      0.25236      0.10813  1.0000
  Si          0.35589      0.23960      0.36782  1.0000
  Si          0.88623      0.66253      0.03310  1.0000
  Si          0.78522      0.12852      0.70456  1.0000
  Si          0.67877      0.76666      0.87274  1.0000
  Si          0.10766      0.34866      0.54005  1.0000
  Si          0.24773      0.91094      0.20434  1.0000
  Si          0.97565      0.12813      0.95523  1.0000
  Si          0.89033      0.85973      0.28921  1.0000
  Si          0.17218      0.05790      0.62193  1.0000
  Si          0.04232      0.89435      0.45582  1.0000
  Si          0.12842      0.15306      0.78901  1.0000
  Si          0.86889      0.98515      0.12197  1.0000
  Si          0.12294      0.97070      0.35501  1.0000
  Si          0.85598      0.89996      0.02125  1.0000
  Si          0.06017      0.17488      0.68939  1.0000
  Si          0.89613      0.03950      0.85499  1.0000
  Si          0.16416      0.13071      0.52090  1.0000
  Si          0.97323      0.86359      0.18890  1.0000
  O2          0.94520      0.01030      0.98712  1.0000
  O2          0.00804      0.94346      0.32237  1.0000
  O2          0.08194      0.09056      0.65229  1.0000
  O2          0.07727      0.01477      0.48785  1.0000
  O2          0.00673      0.06854      0.81974  1.0000
  O2          0.95376      0.95408      0.15500  1.0000
  O1          0.34518      0.56562      0.31885  1.0000
  O1          0.46722      0.80910      0.65431  1.0000
  O3          0.22526      0.66862      0.98285  1.0000
  O1          0.66799      0.42744      0.84013  1.0000
  O1          0.58037      0.23905      0.17252  1.0000
  O1          0.77833      0.35604      0.50580  1.0000
  O1          0.55597      0.34255      0.00796  1.0000
  O1          0.80304      0.47389      0.67310  1.0000
  O1          0.66912      0.22316      0.34017  1.0000
  O1          0.44280      0.66663      0.48889  1.0000
  O1          0.24063      0.58131      0.15068  1.0000
  O1          0.35504      0.78063      0.82407  1.0000
  O2          0.11930      0.23842      0.96529  1.0000
  O2          0.78656      0.90248      0.29846  1.0000
  O2          0.13060      0.91215      0.63102  1.0000
  O2          0.89314      0.79585      0.46258  1.0000
  O2          0.22631      0.10226      0.79708  1.0000
  O2          0.91457      0.13331      0.12901  1.0000
  O2          0.22545      0.11762      0.35097  1.0000
  O2          0.88565      0.78612      0.01358  1.0000
  O2          0.91511      0.14150      0.68529  1.0000
  O2          0.80265      0.88999      0.85334  1.0000
  O2          0.10964      0.22574      0.51960  1.0000
  O2          0.12074      0.90550      0.18630  1.0000
  O2          0.93955      0.88856      0.23862  1.0000
  O2          0.15327      0.07767      0.57028  1.0000
  O2          0.95778      0.08327      0.90379  1.0000
  O2          0.08478      0.13577      0.73767  1.0000
  O2          0.89180      0.95569      0.07134  1.0000
  O2          0.07137      0.93971      0.40504  1.0000
  O3          0.88283      0.18048      0.96683  1.0000
  O3          0.83165      0.71375      0.29945  1.0000
  O3          0.31593      0.14430      0.63605  1.0000
  O3          0.12023      0.82775      0.46916  1.0000
  O3          0.19501      0.29782      0.80268  1.0000
  O3          0.72362      0.90488      0.13482  1.0000
  O2          0.18893      0.88789      0.34167  1.0000
  O3          0.70786      0.84247      0.01225  1.0000
  O3          0.14512      0.32245      0.68072  1.0000
  O2          0.81948      0.11110      0.84259  1.0000
  O2          0.31063      0.20244      0.50599  1.0000
  O3          0.89079      0.71894      0.17552  1.0000
  O1          0.34558      0.65141      0.23423  1.0000
  O1          0.37247      0.71699      0.56973  1.0000
  O3          0.31764      0.66878      0.90493  1.0000
  O1          0.66798      0.37127      0.74936  1.0000
  O1          0.62588      0.29055      0.08138  1.0000
  O1          0.72475      0.34547      0.41433  1.0000
  O3          0.36416      0.33777      0.96165  1.0000
  O3          0.67966      0.04156      0.29267  1.0000
  O3          0.98259      0.66802      0.62503  1.0000
  O3          0.64804      0.68348      0.44765  1.0000
  O3          0.33129      0.96266      0.78389  1.0000
  O3          0.04559      0.37523      0.11191  1.0000
  O3          0.35442      0.35689      0.34466  1.0000
  O3          0.00343      0.65886      0.00888  1.0000
  O3          0.67377      0.00905      0.67998  1.0000
  O3          0.68587      0.64698      0.85543  1.0000
  O3          0.98478      0.34475      0.52045  1.0000
  O3          0.36472      0.03573      0.18638  1.0000
  O1          0.74879      0.29527      0.99668  1.0000
  O1          0.72414      0.46587      0.32928  1.0000
  O1          0.56175      0.26256      0.66678  1.0000
  O1          0.23190      0.69277      0.49359  1.0000
  O1          0.32650      0.54243      0.82805  1.0000
  O1          0.47792      0.78777      0.15898  1.0000
  O3          0.28308      0.75439      0.30636  1.0000
  O3          0.46195      0.72692      0.97449  1.0000
  O1          0.27942      0.55792      0.64113  1.0000
  O3          0.72791      0.24784      0.81242  1.0000
  O3          0.53938      0.29145      0.47606  1.0000
  O1          0.75016      0.47696      0.14342  1.0000
  O3          0.75507      0.54118      0.02086  1.0000
  O3          0.47408      0.22777      0.35278  1.0000
  O3          0.78768      0.25764      0.69337  1.0000
  O3          0.23721      0.47039      0.52420  1.0000
  O3          0.55650      0.76976      0.85402  1.0000
  O3          0.24417      0.78553      0.18499  1.0000
  O3          0.53982      0.79826      0.29815  1.0000
  O2          0.27018      0.48807      0.96373  1.0000
  O3          0.22013      0.75431      0.63464  1.0000
  O3          0.47257      0.19421      0.80457  1.0000
  O3          0.74830      0.55031      0.46914  1.0000
  O3          0.81328      0.27924      0.13684  1.0000
  O3          0.22879      0.34022      0.89213  1.0000
  O3          0.67761      0.89529      0.22457  1.0000
  O3          0.13734      0.80119      0.55847  1.0000
  O3          0.80320      0.67022      0.38946  1.0000
  O3          0.35144      0.13481      0.72502  1.0000
  O3          0.87090      0.21601      0.05662  1.0000
  O2          0.34672      0.24780      0.42197  1.0000
  O3          0.90995      0.68593      0.08629  1.0000
  O2          0.77931      0.10606      0.75814  1.0000
  O3          0.68623      0.77902      0.92639  1.0000
  O3          0.10057      0.33661      0.59355  1.0000
  O2          0.24613      0.91347      0.25871  1.0000
  O1          0.56508      0.57847      0.99246  1.0000
  O3          0.43203      0.99081      0.32127  1.0000
  O1          0.02669      0.46710      0.65853  1.0000
  O3          0.44637      0.44047      0.48023  1.0000
  O3          0.58228      0.00404      0.81477  1.0000
  O1          0.00879      0.57758      0.14766  1.0000
  O1          0.58372      0.59485      0.33029  1.0000
  O1          0.01679      0.43082      0.99721  1.0000
  O1          0.42142      0.99551      0.66005  1.0000
  O1          0.44493      0.39544      0.83627  1.0000
  O1          0.96935      0.58158      0.50333  1.0000
  O1          0.62137      0.05369      0.16793  1.0000
  O1          0.57096      0.16921      0.25354  1.0000
  O1          0.85245      0.42442      0.58754  1.0000
  O1          0.60373      0.43977      0.92194  1.0000
  O1          0.44973      0.85002      0.73830  1.0000
  O1          0.14741      0.60644      0.06913  1.0000
  O1          0.41719      0.56065      0.40434  1.0000
  F           0.47236      0.93202      0.22984  1.0000
  F           0.08822      0.55253      0.56733  1.0000
  F           0.47601      0.54686      0.89973  1.0000
  F           0.55187      0.08995      0.72936  1.0000
  F           0.86198      0.44254      0.06383  1.0000
  F           0.58067      0.43772      0.39542  1.0000
