data_cif

_audit_creation_method             'generated by GULP'

_symmetry_space_group_name_H-M     'P 1'
_symmetry_Int_Tables_number        1
_symmetry_cell_setting             triclinic

_cell_length_a                       12.2194
_cell_length_b                       12.2479
_cell_length_c                       30.1086
_cell_angle_alpha                   90.7039
_cell_angle_beta                    88.9223
_cell_angle_gamma                  119.7089

loop_
_atom_site_label
_atom_site_fract_x
_atom_site_fract_y
_atom_site_fract_z
_atom_site_occupancy
  Ge          0.69960      0.37570      0.03389  1.0000
  Ge          0.63522      0.30586      0.36323  1.0000
  Ge          0.70922      0.31133      0.69881  1.0000
  Ge          0.31657      0.61490      0.52728  1.0000
  Ge          0.39470      0.70934      0.86358  1.0000
  Ge          0.34836      0.71069      0.19432  1.0000
  Ge          0.39021      0.69242      0.29836  1.0000
  Ge          0.34162      0.63003      0.96211  1.0000
  Ge          0.32175      0.67216      0.63232  1.0000
  Ge          0.64182      0.30615      0.80294  1.0000
  Ge          0.69097      0.37676      0.46729  1.0000
  Ge          0.72534      0.33564      0.13323  1.0000
  Ge          0.52386      0.42256      0.97053  1.0000
  Ge          0.58573      0.08157      0.29837  1.0000
  Ge          0.93094      0.48586      0.63160  1.0000
  Ge          0.49202      0.56815      0.46010  1.0000
  Ge          0.44523      0.92549      0.79497  1.0000
  Ge          0.12772      0.53246      0.12994  1.0000
  Ge          0.43081      0.51450      0.36077  1.0000
  Ge          0.11114      0.57218      0.02452  1.0000
  Ge          0.49009      0.89179      0.69626  1.0000
  Ge          0.58864      0.48250      0.86589  1.0000
  Ge          0.90912      0.42085      0.53215  1.0000
  Ge          0.55462      0.11779      0.19851  1.0000
  Ge          0.30077      0.41440      0.85419  1.0000
  Si          0.63227      0.90473      0.18631  1.0000
  Si          0.11916      0.70807      0.51845  1.0000
  Ge          0.72597      0.59726      0.35031  1.0000
  Ge          0.41684      0.11134      0.68635  1.0000
  Si          0.89488      0.28667      0.01849  1.0000
  Ge          0.40443      0.29291      0.48391  1.0000
  Ge          0.91558      0.61104      0.15026  1.0000
  Si          0.71822      0.10252      0.81983  1.0000
  Ge          0.61227      0.71656      0.98687  1.0000
  Si          0.11653      0.39495      0.65182  1.0000
  Ge          0.30846      0.89580      0.31817  1.0000
  Si          0.24227      0.34565      0.95686  1.0000
  Si          0.67934      0.89743      0.28775  1.0000
  Ge          0.11657      0.76287      0.62093  1.0000
  Si          0.77205      0.66447      0.45273  1.0000
  Si          0.35050      0.10831      0.78851  1.0000
  Ge          0.92089      0.24668      0.12111  1.0000
  Si          0.35045      0.23793      0.38116  1.0000
  Si          0.91264      0.65960      0.04784  1.0000
  Si          0.76770      0.09029      0.71761  1.0000
  Si          0.67360      0.76474      0.88391  1.0000
  Si          0.10283      0.33400      0.54977  1.0000
  Si          0.27136      0.91825      0.21570  1.0000
  Si          0.97326      0.11657      0.96938  1.0000
  Si          0.90451      0.84803      0.30221  1.0000
  Si          0.17015      0.04168      0.63715  1.0000
  Si          0.04492      0.88040      0.47007  1.0000
  Si          0.12985      0.16483      0.80362  1.0000
  Si          0.88201      0.97618      0.13611  1.0000
  Si          0.12889      0.96326      0.36973  1.0000
  Si          0.86530      0.88427      0.03552  1.0000
  Si          0.04629      0.15342      0.70316  1.0000
  Si          0.89416      0.03443      0.86867  1.0000
  Si          0.15906      0.11227      0.53663  1.0000
  Si          0.99728      0.86079      0.20258  1.0000
  O2          0.94229      0.99906      0.00098  1.0000
  O2          0.01051      0.93111      0.33830  1.0000
  O2          0.08448      0.07298      0.67063  1.0000
  O2          0.07581      0.99381      0.50447  1.0000
  O2          0.01279      0.07330      0.83567  1.0000
  O2          0.95932      0.93714      0.16866  1.0000
  O1          0.34966      0.55328      0.32429  1.0000
  O1          0.45595      0.76660      0.66200  1.0000
  O1          0.23092      0.66043      0.99092  1.0000
  O1          0.67758      0.43709      0.83486  1.0000
  O1          0.58886      0.23800      0.16496  1.0000
  O1          0.78931      0.34105      0.49608  1.0000
  O1          0.57560      0.33756      0.99978  1.0000
  O1          0.79665      0.43393      0.66687  1.0000
  O1          0.67310      0.21593      0.33279  1.0000
  O1          0.43618      0.65463      0.49222  1.0000
  O1          0.26972      0.59313      0.15736  1.0000
  O1          0.36047      0.79175      0.82879  1.0000
  O2          0.12069      0.21582      0.97433  1.0000
  O2          0.79682      0.88717      0.30660  1.0000
  O3          0.12591      0.89734      0.64436  1.0000
  O2          0.89568      0.78552      0.47317  1.0000
  O2          0.23566      0.12430      0.80934  1.0000
  O3          0.94200      0.12361      0.13946  1.0000
  O2          0.23149      0.11000      0.36176  1.0000
  O2          0.91196      0.78272      0.02727  1.0000
  O2          0.89633      0.09509      0.69975  1.0000
  O2          0.80122      0.88519      0.86378  1.0000
  O2          0.10824      0.21129      0.53154  1.0000
  O2          0.14652      0.91457      0.19530  1.0000
  O2          0.96723      0.88325      0.25320  1.0000
  O2          0.14133      0.06370      0.58690  1.0000
  O2          0.94228      0.06949      0.91875  1.0000
  O2          0.08270      0.14343      0.75312  1.0000
  O2          0.89346      0.93668      0.08565  1.0000
  O2          0.08337      0.93861      0.42095  1.0000
  O2          0.89277      0.18486      0.98222  1.0000
  O3          0.83896      0.70115      0.31188  1.0000
  O3          0.31708      0.12148      0.64708  1.0000
  O2          0.11817      0.80459      0.48113  1.0000
  O3          0.18971      0.30896      0.81629  1.0000
  O2          0.73371      0.90937      0.14966  1.0000
  O3          0.19048      0.88009      0.35609  1.0000
  O3          0.71852      0.81876      0.02609  1.0000
  O2          0.12014      0.29854      0.68780  1.0000
  O2          0.82014      0.10761      0.85519  1.0000
  O3          0.30341      0.18017      0.52251  1.0000
  O3          0.92048      0.71559      0.19127  1.0000
  O1          0.32357      0.65096      0.24699  1.0000
  O1          0.36931      0.65091      0.58129  1.0000
  O1          0.35204      0.72198      0.91699  1.0000
  O1          0.71837      0.35866      0.75372  1.0000
  O1          0.64254      0.33638      0.08660  1.0000
  O1          0.66374      0.29683      0.41865  1.0000
  O3          0.36214      0.34857      0.97977  1.0000
  O3          0.68280      0.01591      0.31101  1.0000
  O1          0.98533      0.64383      0.64488  1.0000
  O3          0.65266      0.66697      0.47390  1.0000
  O3          0.34353      0.98685      0.80967  1.0000
  O1          0.04866      0.37550      0.14325  1.0000
  O3          0.32894      0.35357      0.37000  1.0000
  O3          0.04401      0.66825      0.03715  1.0000
  O3          0.65342      0.95642      0.70443  1.0000
  O3          0.68745      0.64246      0.87533  1.0000
  O3          0.96852      0.31741      0.53865  1.0000
  O3          0.38955      0.05229      0.20689  1.0000
  O3          0.75864      0.27515      0.01895  1.0000
  O1          0.73523      0.46362      0.34964  1.0000
  O1          0.55230      0.25132      0.68463  1.0000
  O3          0.25130      0.71171      0.51626  1.0000
  O1          0.29490      0.54840      0.85077  1.0000
  O3          0.50783      0.77002      0.18238  1.0000
  O1          0.32283      0.76505      0.32803  1.0000
  O1          0.47071      0.70591      0.99827  1.0000
  O3          0.23939      0.52913      0.66038  1.0000
  O3          0.70179      0.22306      0.83016  1.0000
  O1          0.55113      0.31692      0.49684  1.0000
  O1          0.78756      0.47282      0.16574  1.0000
  O3          0.80169      0.53549      0.02499  1.0000
  O3          0.47880      0.26833      0.35597  1.0000
  O3          0.74878      0.19370      0.69266  1.0000
  O3          0.20270      0.45694      0.52358  1.0000
  O3          0.55316      0.74624      0.85808  1.0000
  O3          0.29496      0.81646      0.18901  1.0000
  O3          0.55456      0.76751      0.30017  1.0000
  O3          0.22947      0.46373      0.97225  1.0000
  O1          0.25253      0.76524      0.63622  1.0000
  O3          0.47846      0.23503      0.80234  1.0000
  O3          0.77750      0.54049      0.46642  1.0000
  O1          0.78340      0.22952      0.14186  1.0000
  O3          0.24627      0.33172      0.90349  1.0000
  O2          0.69778      0.91937      0.23407  1.0000
  O3          0.10181      0.76933      0.56378  1.0000
  O3          0.77840      0.68153      0.39952  1.0000
  O3          0.33213      0.09292      0.73532  1.0000
  O3          0.92840      0.24091      0.06345  1.0000
  O3          0.34999      0.21405      0.43354  1.0000
  O3          0.89011      0.66559      0.10054  1.0000
  O2          0.78303      0.11476      0.77083  1.0000
  O3          0.67355      0.79221      0.93619  1.0000
  O2          0.12799      0.34233      0.60278  1.0000
  O3          0.23688      0.88400      0.26732  1.0000
  O1          0.60374      0.57286      0.99175  1.0000
  O1          0.44346      0.03140      0.32941  1.0000
  O3          0.98932      0.39809      0.66024  1.0000
  O1          0.40005      0.42853      0.49102  1.0000
  O3          0.58735      0.97718      0.82618  1.0000
  O1          0.05668      0.61258      0.15223  1.0000
  O1          0.57605      0.55805      0.33639  1.0000
  O3          0.99235      0.42849      0.00451  1.0000
  O1          0.44738      0.99326      0.67209  1.0000
  O1          0.45135      0.44792      0.84006  1.0000
  O3          0.01009      0.56707      0.50827  1.0000
  O3          0.59345      0.00785      0.17597  1.0000
  O1          0.61966      0.16786      0.24973  1.0000
  O1          0.84689      0.42904      0.58234  1.0000
  O1          0.55645      0.40745      0.91610  1.0000
  O1          0.41617      0.83622      0.74614  1.0000
  O1          0.16330      0.55003      0.07478  1.0000
  O1          0.44131      0.59274      0.40948  1.0000
  F           0.48112      0.92696      0.26307  1.0000
  F           0.08614      0.54788      0.59419  1.0000
  F           0.43703      0.56890      0.92859  1.0000
  F           0.54033      0.07334      0.75884  1.0000
  F           0.88236      0.42971      0.09560  1.0000
  F           0.54881      0.46366      0.42562  1.0000
