data_cif

_audit_creation_method             'generated by GULP'

_symmetry_space_group_name_H-M     'P 1'
_symmetry_Int_Tables_number        1
_symmetry_cell_setting             triclinic

_cell_length_a                       12.2457
_cell_length_b                       12.2494
_cell_length_c                       30.1115
_cell_angle_alpha                   89.2544
_cell_angle_beta                    90.5150
_cell_angle_gamma                  119.9455

loop_
_atom_site_label
_atom_site_fract_x
_atom_site_fract_y
_atom_site_fract_z
_atom_site_occupancy
  Ge          0.69960      0.37570      0.03389  1.0000
  Ge          0.63091      0.32296      0.36724  1.0000
  Ge          0.67721      0.28700      0.70359  1.0000
  Ge          0.30780      0.61606      0.53560  1.0000
  Ge          0.37772      0.67260      0.87331  1.0000
  Ge          0.32589      0.68797      0.20319  1.0000
  Ge          0.38992      0.69709      0.30815  1.0000
  Ge          0.31143      0.62545      0.97370  1.0000
  Ge          0.29563      0.66479      0.63931  1.0000
  Ge          0.63307      0.30439      0.80320  1.0000
  Ge          0.69345      0.37707      0.47210  1.0000
  Ge          0.68988      0.30286      0.13778  1.0000
  Ge          0.52254      0.42881      0.97148  1.0000
  Ge          0.58687      0.10452      0.30212  1.0000
  Ge          0.89090      0.46306      0.63741  1.0000
  Ge          0.48909      0.57843      0.47289  1.0000
  Ge          0.42943      0.89616      0.80946  1.0000
  Ge          0.10366      0.51299      0.14039  1.0000
  Ge          0.43919      0.52176      0.37336  1.0000
  Ge          0.09045      0.56909      0.04073  1.0000
  Ge          0.47528      0.88408      0.70427  1.0000
  Ge          0.58343      0.47863      0.86673  1.0000
  Ge          0.91718      0.42490      0.53715  1.0000
  Ge          0.51822      0.07833      0.20290  1.0000
  Ge          0.29170      0.40000      0.85000  1.0000
  Ge          0.60960      0.89232      0.18356  1.0000
  Ge          0.10741      0.70033      0.51636  1.0000
  Ge          0.71422      0.60928      0.35053  1.0000
  Ge          0.40111      0.09824      0.68467  1.0000
  Ge          0.90161      0.29317      0.01695  1.0000
  Si          0.40783      0.28880      0.48341  1.0000
  Ge          0.89139      0.59411      0.15073  1.0000
  Si          0.71831      0.10802      0.81731  1.0000
  Si          0.59916      0.71473      0.98370  1.0000
  Si          0.10066      0.38198      0.64834  1.0000
  Si          0.29905      0.89366      0.31567  1.0000
  Si          0.24111      0.34195      0.95278  1.0000
  Si          0.67268      0.90962      0.28648  1.0000
  Si          0.09037      0.74452      0.61872  1.0000
  Si          0.76734      0.66345      0.45341  1.0000
  Si          0.34766      0.09708      0.78681  1.0000
  Si          0.90614      0.23635      0.11975  1.0000
  Si          0.34470      0.24327      0.38179  1.0000
  Si          0.90543      0.66328      0.04841  1.0000
  Ge          0.76231      0.08885      0.71469  1.0000
  Ge          0.66237      0.76415      0.88050  1.0000
  Si          0.09935      0.32880      0.54709  1.0000
  Si          0.24151      0.89288      0.21398  1.0000
  Si          0.97030      0.11709      0.96583  1.0000
  Si          0.89348      0.85586      0.29916  1.0000
  Si          0.15366      0.02111      0.63112  1.0000
  Si          0.04349      0.88190      0.46502  1.0000
  Si          0.12754      0.15068      0.79826  1.0000
  Si          0.85388      0.96122      0.13216  1.0000
  Si          0.12636      0.96891      0.36489  1.0000
  Si          0.84997      0.88218      0.03165  1.0000
  Si          0.03449      0.13357      0.69778  1.0000
  Si          0.89510      0.03515      0.86522  1.0000
  Si          0.15805      0.11216      0.53110  1.0000
  Si          0.96644      0.84395      0.19937  1.0000
  O2          0.93350      0.99704      0.99804  1.0000
  O2          0.01445      0.94058      0.33038  1.0000
  O2          0.07580      0.06054      0.66393  1.0000
  O2          0.07884      0.00244      0.49589  1.0000
  O2          0.01090      0.07452      0.83184  1.0000
  O2          0.94239      0.92891      0.16345  1.0000
  O1          0.35105      0.57588      0.34221  1.0000
  O1          0.41482      0.74337      0.67581  1.0000
  O1          0.23117      0.65929      0.00978  1.0000
  O1          0.66847      0.42319      0.83941  1.0000
  O1          0.56405      0.21336      0.16856  1.0000
  O1          0.77874      0.33744      0.50413  1.0000
  O1          0.56402      0.34353      0.00525  1.0000
  O1          0.77365      0.42588      0.67289  1.0000
  O1          0.66687      0.22515      0.33824  1.0000
  O1          0.44786      0.65451      0.51052  1.0000
  O1          0.22561      0.55013      0.17656  1.0000
  O1          0.34088      0.77662      0.84309  1.0000
  O2          0.11821      0.21864      0.97383  1.0000
  O2          0.79394      0.90427      0.30705  1.0000
  O2          0.09699      0.87151      0.63834  1.0000
  O2          0.89572      0.78189      0.47342  1.0000
  O2          0.22566      0.10040      0.80696  1.0000
  O2          0.89798      0.10810      0.13974  1.0000
  O2          0.22064      0.11822      0.36398  1.0000
  O2          0.90028      0.78423      0.02803  1.0000
  O3          0.88605      0.06886      0.69594  1.0000
  O3          0.80574      0.88787      0.86143  1.0000
  O2          0.10315      0.20672      0.52907  1.0000
  O2          0.11277      0.88341      0.19544  1.0000
  O2          0.93842      0.87624      0.24816  1.0000
  O2          0.13703      0.05209      0.58014  1.0000
  O2          0.94785      0.07104      0.91525  1.0000
  O2          0.07852      0.12456      0.74768  1.0000
  O2          0.87195      0.93707      0.08110  1.0000
  O2          0.06805      0.92546      0.41372  1.0000
  O3          0.89041      0.18212      0.97816  1.0000
  O3          0.82889      0.71125      0.31243  1.0000
  O3          0.29827      0.09622      0.64360  1.0000
  O3          0.12403      0.81799      0.47839  1.0000
  O3          0.19303      0.29644      0.80913  1.0000
  O3          0.71048      0.87763      0.14610  1.0000
  O2          0.20187      0.89731      0.35164  1.0000
  O2          0.70100      0.81109      0.02021  1.0000
  O2          0.09652      0.28170      0.68498  1.0000
  O2          0.81473      0.10500      0.85447  1.0000
  O2          0.30666      0.18868      0.51921  1.0000
  O3          0.88486      0.69717      0.18940  1.0000
  O1          0.35314      0.64554      0.25422  1.0000
  O1          0.35211      0.68752      0.58624  1.0000
  O1          0.29557      0.66786      0.92063  1.0000
  O1          0.67496      0.36604      0.75114  1.0000
  O1          0.64827      0.29442      0.08243  1.0000
  O1          0.70345      0.34405      0.41728  1.0000
  O3          0.36296      0.32760      0.96120  1.0000
  O3          0.69062      0.04579      0.29590  1.0000
  O3          0.95527      0.62739      0.62859  1.0000
  O3          0.65080      0.68250      0.46556  1.0000
  O3          0.33450      0.96347      0.79657  1.0000
  O3          0.04322      0.35163      0.13105  1.0000
  O3          0.33836      0.35991      0.36096  1.0000
  O3          0.02551      0.66656      0.02705  1.0000
  O1          0.63325      0.96239      0.69170  1.0000
  O1          0.66075      0.63762      0.85590  1.0000
  O3          0.98080      0.32640      0.52431  1.0000
  O3          0.35486      0.01408      0.19146  1.0000
  O1          0.77643      0.31529      0.00428  1.0000
  O1          0.69598      0.46406      0.33863  1.0000
  O1          0.54123      0.22577      0.67039  1.0000
  O1          0.23608      0.68311      0.50556  1.0000
  O1          0.30106      0.54041      0.83830  1.0000
  O1          0.46457      0.76200      0.17380  1.0000
  O3          0.29301      0.76144      0.32029  1.0000
  O3          0.47499      0.72466      0.98552  1.0000
  O3          0.23711      0.50544      0.65085  1.0000
  O3          0.73362      0.24557      0.81733  1.0000
  O3          0.53258      0.27946      0.48543  1.0000
  O1          0.74862      0.46058      0.15145  1.0000
  O3          0.77497      0.53970      0.03465  1.0000
  O3          0.46642      0.23783      0.36570  1.0000
  O1          0.78232      0.22828      0.69527  1.0000
  O3          0.23040      0.45164      0.53402  1.0000
  O1          0.54125      0.78311      0.86250  1.0000
  O3          0.23819      0.76502      0.20023  1.0000
  O3          0.54728      0.81302      0.31278  1.0000
  O3          0.26620      0.46549      0.97830  1.0000
  O3          0.19129      0.71983      0.64527  1.0000
  O3          0.47212      0.20365      0.81108  1.0000
  O3          0.73715      0.53481      0.47801  1.0000
  O3          0.80847      0.26474      0.14487  1.0000
  O3          0.21342      0.34111      0.90047  1.0000
  O3          0.67171      0.87994      0.23470  1.0000
  O3          0.12215      0.77498      0.56688  1.0000
  O3          0.79211      0.66729      0.40106  1.0000
  O3          0.34521      0.12279      0.73433  1.0000
  O3          0.88034      0.21316      0.06734  1.0000
  O2          0.33704      0.24311      0.43576  1.0000
  O3          0.91956      0.67951      0.10161  1.0000
  O3          0.76523      0.07549      0.77226  1.0000
  O3          0.67684      0.76427      0.93805  1.0000
  O2          0.07945      0.31302      0.60082  1.0000
  O2          0.24574      0.90853      0.26776  1.0000
  O3          0.55843      0.57053      0.99556  1.0000
  O3          0.43980      0.00333      0.32574  1.0000
  O3          0.00162      0.42545      0.65946  1.0000
  O3          0.44395      0.42977      0.49541  1.0000
  O3          0.57434      0.01301      0.83006  1.0000
  O1          0.00280      0.55500      0.16495  1.0000
  O1          0.57814      0.61183      0.34136  1.0000
  O1          0.03973      0.43004      0.00973  1.0000
  O1          0.39711      0.95642      0.68195  1.0000
  O1          0.43222      0.40140      0.84576  1.0000
  O1          0.96927      0.56598      0.50578  1.0000
  O1          0.60814      0.02779      0.17212  1.0000
  O1          0.57593      0.16420      0.25196  1.0000
  O1          0.83583      0.39517      0.58671  1.0000
  O1          0.59907      0.45346      0.92197  1.0000
  O1          0.45338      0.84499      0.75911  1.0000
  O1          0.16673      0.59204      0.09164  1.0000
  O1          0.41482      0.57306      0.42413  1.0000
  F           0.47213      0.92566      0.23913  1.0000
  F           0.07646      0.53113      0.57158  1.0000
  F           0.44359      0.57701      0.90596  1.0000
  F           0.57894      0.12641      0.74018  1.0000
  F           0.92909      0.46196      0.07537  1.0000
  F           0.54723      0.46957      0.40676  1.0000
