data_cif

_audit_creation_method             'generated by GULP'

_symmetry_space_group_name_H-M     'P 1'
_symmetry_Int_Tables_number        1
_symmetry_cell_setting             triclinic

_cell_length_a                       12.2070
_cell_length_b                       12.2527
_cell_length_c                       30.0362
_cell_angle_alpha                   90.5715
_cell_angle_beta                    90.2435
_cell_angle_gamma                  120.0231

loop_
_atom_site_label
_atom_site_fract_x
_atom_site_fract_y
_atom_site_fract_z
_atom_site_occupancy
  Ge          0.69960      0.37570      0.03389  1.0000
  Ge          0.63913      0.29574      0.36474  1.0000
  Ge          0.69979      0.31393      0.70055  1.0000
  Ge          0.32994      0.62065      0.52311  1.0000
  Ge          0.39036      0.69920      0.85604  1.0000
  Ge          0.33325      0.69753      0.18730  1.0000
  Ge          0.38021      0.67506      0.29218  1.0000
  Ge          0.33997      0.63584      0.95592  1.0000
  Ge          0.31804      0.67306      0.62339  1.0000
  Ge          0.63819      0.30085      0.80521  1.0000
  Ge          0.69444      0.37725      0.46880  1.0000
  Ge          0.72360      0.32481      0.13740  1.0000
  Ge          0.51872      0.42513      0.97246  1.0000
  Ge          0.58435      0.06710      0.30142  1.0000
  Ge          0.92823      0.49134      0.63893  1.0000
  Ge          0.49314      0.56575      0.45418  1.0000
  Ge          0.44458      0.91597      0.78806  1.0000
  Ge          0.11135      0.52401      0.11965  1.0000
  Ge          0.43042      0.50232      0.35410  1.0000
  Ge          0.11644      0.57936      0.01819  1.0000
  Ge          0.48624      0.90090      0.68646  1.0000
  Ge          0.58408      0.47513      0.86805  1.0000
  Ge          0.91998      0.42808      0.53431  1.0000
  Ge          0.54892      0.10502      0.20257  1.0000
  Ge          0.29399      0.40285      0.85216  1.0000
  Si          0.62386      0.89434      0.18455  1.0000
  Si          0.13133      0.71276      0.51948  1.0000
  Ge          0.72618      0.58429      0.34738  1.0000
  Si          0.41682      0.12052      0.68333  1.0000
  Ge          0.89680      0.28536      0.01504  1.0000
  Ge          0.40683      0.29300      0.48138  1.0000
  Ge          0.92710      0.61310      0.14784  1.0000
  Ge          0.72034      0.09505      0.81579  1.0000
  Ge          0.61053      0.72201      0.98387  1.0000
  Ge          0.13828      0.40538      0.65125  1.0000
  Ge          0.30396      0.87945      0.31685  1.0000
  Si          0.23666      0.34912      0.95540  1.0000
  Si          0.67232      0.88000      0.28616  1.0000
  Si          0.13129      0.77126      0.62185  1.0000
  Si          0.77413      0.66180      0.44980  1.0000
  Si          0.35145      0.10098      0.78531  1.0000
  Si          0.92876      0.24445      0.11743  1.0000
  Si          0.35308      0.22792      0.37844  1.0000
  Si          0.91714      0.66024      0.04494  1.0000
  Si          0.77016      0.09829      0.71209  1.0000
  Si          0.66982      0.75883      0.88116  1.0000
  Si          0.11649      0.34048      0.54820  1.0000
  Si          0.26615      0.91052      0.21436  1.0000
  Si          0.97091      0.10993      0.96792  1.0000
  Si          0.90116      0.83435      0.30051  1.0000
  Si          0.16705      0.03991      0.63458  1.0000
  Si          0.04850      0.87973      0.46894  1.0000
  Si          0.12426      0.14829      0.80034  1.0000
  Si          0.87386      0.97249      0.13529  1.0000
  Si          0.13011      0.95154      0.36800  1.0000
  Si          0.86581      0.88399      0.03472  1.0000
  Si          0.04499      0.15082      0.70018  1.0000
  Si          0.89813      0.02589      0.86726  1.0000
  Si          0.16295      0.11641      0.53388  1.0000
  Si          0.99248      0.85817      0.20086  1.0000
  O2          0.95082      0.00099      0.00230  1.0000
  O2          0.00782      0.91882      0.33738  1.0000
  O2          0.07911      0.06715      0.66708  1.0000
  O2          0.07766      0.99578      0.50193  1.0000
  O2          0.01430      0.05785      0.83425  1.0000
  O2          0.95645      0.94278      0.16978  1.0000
  O1          0.34484      0.53485      0.31669  1.0000
  O1          0.46013      0.78739      0.64983  1.0000
  O1          0.23043      0.66852      0.98276  1.0000
  O1          0.67380      0.43058      0.83810  1.0000
  O1          0.59386      0.23143      0.16882  1.0000
  O1          0.79098      0.34430      0.50127  1.0000
  O1          0.56465      0.33999      0.00519  1.0000
  O1          0.79459      0.44476      0.67074  1.0000
  O1          0.67413      0.19921      0.33726  1.0000
  O1          0.43724      0.65429      0.48388  1.0000
  O1          0.25802      0.58429      0.14982  1.0000
  O1          0.35569      0.77393      0.81775  1.0000
  O2          0.11367      0.22530      0.97513  1.0000
  O2          0.78901      0.86671      0.30521  1.0000
  O2          0.12263      0.89312      0.63855  1.0000
  O2          0.89890      0.78495      0.47021  1.0000
  O2          0.23034      0.10731      0.80326  1.0000
  O2          0.92966      0.12191      0.13735  1.0000
  O2          0.23463      0.09710      0.35887  1.0000
  O2          0.90758      0.77999      0.02582  1.0000
  O2          0.89836      0.10772      0.69116  1.0000
  O2          0.79548      0.87792      0.86007  1.0000
  O2          0.11219      0.21466      0.52722  1.0000
  O2          0.14162      0.90952      0.19368  1.0000
  O2          0.96359      0.87403      0.25205  1.0000
  O2          0.14688      0.07111      0.58462  1.0000
  O2          0.95021      0.05383      0.91789  1.0000
  O2          0.06561      0.12208      0.75069  1.0000
  O2          0.88997      0.93028      0.08603  1.0000
  O2          0.09077      0.93256      0.41958  1.0000
  O3          0.88090      0.16712      0.97756  1.0000
  O3          0.83892      0.68691      0.30916  1.0000
  O2          0.31572      0.12254      0.64806  1.0000
  O2          0.12296      0.80800      0.48386  1.0000
  O3          0.18593      0.29313      0.81329  1.0000
  O2          0.72605      0.90043      0.14831  1.0000
  O3          0.18708      0.86468      0.35435  1.0000
  O3          0.71999      0.82683      0.02288  1.0000
  O3          0.13216      0.29673      0.68999  1.0000
  O3          0.83326      0.10625      0.85474  1.0000
  O3          0.30739      0.18327      0.52054  1.0000
  O3          0.91512      0.71387      0.18681  1.0000
  O1          0.31317      0.63845      0.24064  1.0000
  O1          0.39408      0.66597      0.57532  1.0000
  O1          0.35062      0.72117      0.90866  1.0000
  O1          0.70934      0.35883      0.75515  1.0000
  O1          0.66325      0.34753      0.08898  1.0000
  O1          0.67107      0.29436      0.42070  1.0000
  O3          0.35669      0.35261      0.97963  1.0000
  O3          0.68029      0.99887      0.31117  1.0000
  O3          0.01259      0.65403      0.64509  1.0000
  O3          0.65501      0.66601      0.46904  1.0000
  O3          0.34317      0.97625      0.80330  1.0000
  O3          0.05200      0.36526      0.13648  1.0000
  O3          0.33076      0.34122      0.36458  1.0000
  O3          0.04893      0.67595      0.03136  1.0000
  O3          0.65215      0.96902      0.69726  1.0000
  O3          0.68424      0.63597      0.87674  1.0000
  O3          0.97973      0.32719      0.54185  1.0000
  O3          0.38592      0.04747      0.20726  1.0000
  O1          0.75103      0.27447      0.01697  1.0000
  O1          0.73718      0.45147      0.34874  1.0000
  O3          0.54367      0.25591      0.68311  1.0000
  O3          0.26285      0.71903      0.51352  1.0000
  O1          0.28783      0.53584      0.84573  1.0000
  O3          0.49706      0.76370      0.17782  1.0000
  O1          0.31350      0.74510      0.32337  1.0000
  O1          0.47035      0.71507      0.99294  1.0000
  O1          0.27305      0.54491      0.66028  1.0000
  O1          0.70507      0.22391      0.83061  1.0000
  O1          0.55401      0.31857      0.49657  1.0000
  O1          0.80730      0.46764      0.16431  1.0000
  O3          0.80501      0.53249      0.02246  1.0000
  O3          0.48192      0.25489      0.35534  1.0000
  O3          0.75612      0.21185      0.69126  1.0000
  O3          0.21330      0.46044      0.52069  1.0000
  O3          0.54846      0.73309      0.85292  1.0000
  O3          0.29462      0.81607      0.18619  1.0000
  O3          0.54538      0.75097      0.29709  1.0000
  O3          0.22678      0.47011      0.96798  1.0000
  O3          0.26111      0.78307      0.63689  1.0000
  O3          0.47364      0.22604      0.80468  1.0000
  O3          0.78184      0.54074      0.46620  1.0000
  O3          0.79947      0.23700      0.13372  1.0000
  O3          0.23711      0.32617      0.90222  1.0000
  O2          0.68940      0.90345      0.23269  1.0000
  O2          0.11408      0.76263      0.56774  1.0000
  O3          0.78002      0.67274      0.39631  1.0000
  O2          0.34755      0.09816      0.73098  1.0000
  O3          0.93313      0.23559      0.06383  1.0000
  O3          0.35181      0.20914      0.43136  1.0000
  O3          0.89679      0.66365      0.09781  1.0000
  O3          0.79681      0.11613      0.76503  1.0000
  O3          0.67067      0.79434      0.93284  1.0000
  O3          0.14738      0.34046      0.60019  1.0000
  O3          0.23272      0.87498      0.26568  1.0000
  O1          0.60096      0.57842      0.99148  1.0000
  O1          0.44163      0.01185      0.33126  1.0000
  O1          0.00406      0.41636      0.65955  1.0000
  O1          0.40253      0.42889      0.48628  1.0000
  O1          0.58210      0.95840      0.82181  1.0000
  O1          0.06895      0.61942      0.15198  1.0000
  O1          0.57570      0.54233      0.33136  1.0000
  O1          0.99811      0.43339      0.99780  1.0000
  O3          0.45530      0.01945      0.66863  1.0000
  O1          0.44513      0.43507      0.84086  1.0000
  O3          0.02118      0.57003      0.50948  1.0000
  O3          0.59619      0.00735      0.17662  1.0000
  O1          0.61622      0.15879      0.25366  1.0000
  O1          0.87226      0.45009      0.58548  1.0000
  O1          0.55353      0.40405      0.91902  1.0000
  O1          0.41595      0.84217      0.73646  1.0000
  O1          0.17873      0.56403      0.06781  1.0000
  O1          0.44319      0.58488      0.40212  1.0000
  F           0.47762      0.91868      0.26166  1.0000
  F           0.15774      0.57303      0.59434  1.0000
  F           0.43341      0.56818      0.92553  1.0000
  F           0.55471      0.07947      0.75994  1.0000
  F           0.94240      0.46237      0.09010  1.0000
  F           0.55122      0.45762      0.42258  1.0000
