data_cif

_audit_creation_method             'generated by GULP'

_symmetry_space_group_name_H-M     'P 1'
_symmetry_Int_Tables_number        1
_symmetry_cell_setting             triclinic

_cell_length_a                       12.2257
_cell_length_b                       12.2460
_cell_length_c                       30.0534
_cell_angle_alpha                   89.6770
_cell_angle_beta                    90.0606
_cell_angle_gamma                  119.8873

loop_
_atom_site_label
_atom_site_fract_x
_atom_site_fract_y
_atom_site_fract_z
_atom_site_occupancy
  Ge          0.69960      0.37570      0.03389  1.0000
  Ge          0.66550      0.33644      0.36459  1.0000
  Ge          0.69761      0.32987      0.69852  1.0000
  Ge          0.34047      0.65661      0.53100  1.0000
  Ge          0.38566      0.71614      0.86240  1.0000
  Ge          0.35436      0.70331      0.19667  1.0000
  Ge          0.41564      0.71843      0.29583  1.0000
  Ge          0.33971      0.63655      0.96141  1.0000
  Ge          0.31663      0.69781      0.63002  1.0000
  Ge          0.64087      0.32700      0.80310  1.0000
  Ge          0.70969      0.40287      0.46411  1.0000
  Ge          0.73138      0.33577      0.13338  1.0000
  Ge          0.52656      0.43099      0.96961  1.0000
  Si          0.62351      0.11850      0.30176  1.0000
  Ge          0.92345      0.50812      0.63449  1.0000
  Ge          0.51325      0.60829      0.46505  1.0000
  Ge          0.44446      0.93988      0.79545  1.0000
  Ge          0.13314      0.53322      0.13020  1.0000
  Ge          0.46732      0.54808      0.35970  1.0000
  Ge          0.11179      0.57511      0.02449  1.0000
  Ge          0.48595      0.92008      0.69427  1.0000
  Ge          0.58535      0.49818      0.86517  1.0000
  Ge          0.92936      0.45552      0.52951  1.0000
  Ge          0.56327      0.11245      0.19808  1.0000
  Ge          0.29396      0.42226      0.85304  1.0000
  Si          0.63841      0.90029      0.18581  1.0000
  Si          0.14351      0.74386      0.52115  1.0000
  Si          0.75486      0.61981      0.35072  1.0000
  Si          0.41390      0.13693      0.68635  1.0000
  Si          0.89528      0.28852      0.01802  1.0000
  Ge          0.43445      0.31767      0.48499  1.0000
  Ge          0.92155      0.61196      0.15081  1.0000
  Ge          0.72118      0.12176      0.81827  1.0000
  Ge          0.61227      0.72484      0.98581  1.0000
  Ge          0.13336      0.42485      0.65217  1.0000
  Ge          0.33556      0.91021      0.31863  1.0000
  Si          0.24291      0.35283      0.95627  1.0000
  Ge          0.70020      0.91347      0.28884  1.0000
  Si          0.12657      0.79087      0.62299  1.0000
  Ge          0.80055      0.68677      0.45389  1.0000
  Si          0.35340      0.12687      0.78829  1.0000
  Ge          0.92479      0.24606      0.12108  1.0000
  Si          0.38149      0.26561      0.38245  1.0000
  Si          0.91340      0.66091      0.04807  1.0000
  Si          0.76929      0.11636      0.71500  1.0000
  Si          0.66772      0.77874      0.88301  1.0000
  Si          0.13069      0.37253      0.54955  1.0000
  Si          0.27942      0.91320      0.21643  1.0000
  Si          0.97601      0.12144      0.96975  1.0000
  Si          0.93028      0.87080      0.30328  1.0000
  Si          0.16660      0.06004      0.63631  1.0000
  Si          0.07119      0.91923      0.47012  1.0000
  Si          0.12423      0.17127      0.80234  1.0000
  Si          0.88634      0.97496      0.13580  1.0000
  Si          0.16580      0.99247      0.36965  1.0000
  Si          0.86761      0.88685      0.03532  1.0000
  Si          0.04344      0.16928      0.70210  1.0000
  Si          0.89581      0.04793      0.86902  1.0000
  Si          0.18241      0.15200      0.53609  1.0000
  Si          0.00622      0.86145      0.20275  1.0000
  O2          0.94722      0.00407      0.00168  1.0000
  O2          0.05015      0.94610      0.33524  1.0000
  O2          0.07912      0.08848      0.66855  1.0000
  O2          0.10770      0.03865      0.50133  1.0000
  O2          0.01279      0.07964      0.83611  1.0000
  O2          0.96692      0.93633      0.16787  1.0000
  O1          0.37868      0.57875      0.32575  1.0000
  O1          0.45419      0.80386      0.65886  1.0000
  O1          0.23006      0.66518      0.99073  1.0000
  O1          0.67601      0.46036      0.83284  1.0000
  O1          0.59861      0.23867      0.16744  1.0000
  O1          0.81001      0.36660      0.49595  1.0000
  O1          0.57614      0.34291      0.99924  1.0000
  O1          0.78601      0.45586      0.66510  1.0000
  O3          0.69982      0.24947      0.32807  1.0000
  O1          0.45557      0.69210      0.49265  1.0000
  O1          0.27573      0.59192      0.15735  1.0000
  O1          0.35310      0.80083      0.82714  1.0000
  O2          0.12327      0.22265      0.97481  1.0000
  O3          0.84210      0.93075      0.30894  1.0000
  O2          0.11550      0.91132      0.63932  1.0000
  O3          0.92338      0.83060      0.47270  1.0000
  O2          0.23327      0.13448      0.80656  1.0000
  O3          0.94625      0.12260      0.13942  1.0000
  O2          0.25846      0.14202      0.36180  1.0000
  O2          0.91141      0.78373      0.02698  1.0000
  O2          0.89591      0.12228      0.69420  1.0000
  O2          0.79132      0.90120      0.86189  1.0000
  O2          0.13142      0.24969      0.52865  1.0000
  O2          0.15548      0.91336      0.19618  1.0000
  O2          0.97816      0.88822      0.25251  1.0000
  O2          0.15372      0.09748      0.58615  1.0000
  O2          0.94528      0.07158      0.91949  1.0000
  O2          0.06819      0.14260      0.75254  1.0000
  O2          0.89782      0.93714      0.08548  1.0000
  O2          0.11198      0.96563      0.41957  1.0000
  O2          0.89410      0.18826      0.98178  1.0000
  O2          0.85095      0.72076      0.31390  1.0000
  O2          0.31347      0.13692      0.65065  1.0000
  O2          0.14029      0.84145      0.48510  1.0000
  O3          0.18433      0.31606      0.81451  1.0000
  O2          0.73768      0.90626      0.14829  1.0000
  O3          0.24180      0.92103      0.36023  1.0000
  O3          0.72094      0.82491      0.02514  1.0000
  O3          0.12594      0.31544      0.69146  1.0000
  O3          0.83456      0.13183      0.85648  1.0000
  O3          0.32917      0.21955      0.52599  1.0000
  O3          0.92915      0.71565      0.19209  1.0000
  O1          0.33328      0.63614      0.24802  1.0000
  O1          0.40214      0.69910      0.58274  1.0000
  O1          0.34502      0.72761      0.91592  1.0000
  O1          0.71209      0.37995      0.75238  1.0000
  O1          0.64365      0.33221      0.08666  1.0000
  O1          0.70971      0.31985      0.41670  1.0000
  O3          0.36469      0.35623      0.97845  1.0000
  O3          0.69452      0.04025      0.31202  1.0000
  O3          0.00605      0.66970      0.64394  1.0000
  O1          0.67183      0.68535      0.47698  1.0000
  O3          0.34632      0.00432      0.80894  1.0000
  O1          0.05275      0.37506      0.14320  1.0000
  O3          0.37030      0.38703      0.37296  1.0000
  O3          0.04423      0.66992      0.03712  1.0000
  O3          0.65084      0.98522      0.70301  1.0000
  O3          0.68365      0.65762      0.87557  1.0000
  O3          0.99739      0.36114      0.54075  1.0000
  O3          0.40045      0.04612      0.20699  1.0000
  O3          0.75872      0.27683      0.01796  1.0000
  O3          0.76673      0.49517      0.34981  1.0000
  O3          0.54012      0.27173      0.68391  1.0000
  O3          0.27925      0.75622      0.51810  1.0000
  O1          0.28549      0.55529      0.84940  1.0000
  O3          0.51488      0.76444      0.18337  1.0000
  O1          0.34086      0.77733      0.33070  1.0000
  O1          0.47055      0.71220      0.99753  1.0000
  O1          0.26346      0.56420      0.66503  1.0000
  O1          0.70779      0.25241      0.83075  1.0000
  O1          0.57455      0.32768      0.49814  1.0000
  O1          0.79322      0.47260      0.16573  1.0000
  O3          0.80063      0.53654      0.02577  1.0000
  O3          0.50529      0.28089      0.35803  1.0000
  O3          0.75247      0.22580      0.69126  1.0000
  O3          0.23810      0.49526      0.52447  1.0000
  O3          0.54469      0.75539      0.85694  1.0000
  O3          0.29387      0.80529      0.19180  1.0000
  O1          0.58014      0.77478      0.30745  1.0000
  O3          0.22947      0.46963      0.97189  1.0000
  O3          0.25472      0.80330      0.64038  1.0000
  O3          0.47648      0.25388      0.80441  1.0000
  O1          0.81867      0.56664      0.47350  1.0000
  O1          0.78767      0.22775      0.14210  1.0000
  O3          0.24157      0.33920      0.90267  1.0000
  O3          0.71683      0.92586      0.23132  1.0000
  O2          0.11643      0.78767      0.56875  1.0000
  O3          0.80387      0.69853      0.39609  1.0000
  O2          0.34503      0.11723      0.73411  1.0000
  O3          0.92876      0.24124      0.06328  1.0000
  O3          0.37835      0.23755      0.43496  1.0000
  O3          0.89409      0.66700      0.10088  1.0000
  O3          0.79748      0.13973      0.76741  1.0000
  O3          0.66927      0.80530      0.93538  1.0000
  O3          0.15450      0.36683      0.60196  1.0000
  O3          0.25376      0.88981      0.26920  1.0000
  O1          0.60599      0.58168      0.99018  1.0000
  O3          0.48102      0.04711      0.32114  1.0000
  O1          0.99576      0.43062      0.65674  1.0000
  O1          0.43582      0.45821      0.48735  1.0000
  O1          0.58349      0.98593      0.82722  1.0000
  O1          0.06154      0.61165      0.15229  1.0000
  O3          0.61084      0.57331      0.33850  1.0000
  O3          0.99225      0.43135      0.00438  1.0000
  O3          0.45245      0.03483      0.67373  1.0000
  O1          0.44569      0.46081      0.83962  1.0000
  O3          0.04342      0.60159      0.50872  1.0000
  O3          0.59337      0.00005      0.17492  1.0000
  O3          0.63479      0.15273      0.25004  1.0000
  O1          0.87738      0.47652      0.58053  1.0000
  O1          0.55750      0.41883      0.91496  1.0000
  O1          0.41647      0.86356      0.74487  1.0000
  O1          0.16554      0.55166      0.07479  1.0000
  O1          0.49266      0.62440      0.40986  1.0000
  F           0.47660      0.87120      0.26072  1.0000
  F           0.16443      0.59909      0.59570  1.0000
  F           0.43419      0.57784      0.92742  1.0000
  F           0.55567      0.10308      0.76322  1.0000
  F           0.88359      0.42875      0.09548  1.0000
  F           0.61602      0.46474      0.42841  1.0000
