data_cif

_audit_creation_method             'generated by GULP'

_symmetry_space_group_name_H-M     'P 1'
_symmetry_Int_Tables_number        1
_symmetry_cell_setting             triclinic

_cell_length_a                       12.2322
_cell_length_b                       12.2653
_cell_length_c                       30.0996
_cell_angle_alpha                   89.9486
_cell_angle_beta                    89.6253
_cell_angle_gamma                  120.0162

loop_
_atom_site_label
_atom_site_fract_x
_atom_site_fract_y
_atom_site_fract_z
_atom_site_occupancy
  Ge          0.69960      0.37570      0.03389  1.0000
  Ge          0.62836      0.34218      0.36612  1.0000
  Ge          0.67894      0.31196      0.70189  1.0000
  Ge          0.29952      0.63950      0.54648  1.0000
  Ge          0.36548      0.69184      0.87527  1.0000
  Ge          0.32048      0.69041      0.20879  1.0000
  Ge          0.39341      0.71079      0.31237  1.0000
  Ge          0.30884      0.61926      0.97925  1.0000
  Ge          0.31483      0.70306      0.64644  1.0000
  Ge          0.62247      0.33136      0.80585  1.0000
  Ge          0.68373      0.38826      0.47073  1.0000
  Ge          0.68078      0.30300      0.13822  1.0000
  Ge          0.52700      0.42329      0.96880  1.0000
  Ge          0.58819      0.12676      0.30086  1.0000
  Ge          0.90528      0.48808      0.63731  1.0000
  Ge          0.47183      0.58774      0.48309  1.0000
  Ge          0.41585      0.91729      0.81379  1.0000
  Ge          0.09785      0.51539      0.14619  1.0000
  Ge          0.43346      0.53605      0.38166  1.0000
  Ge          0.08826      0.56868      0.04655  1.0000
  Ge          0.47960      0.92177      0.71404  1.0000
  Ge          0.56831      0.50253      0.87019  1.0000
  Ge          0.91010      0.43433      0.53291  1.0000
  Ge          0.50681      0.08030      0.20275  1.0000
  Ge          0.28789      0.41097      0.85263  1.0000
  Ge          0.60244      0.89536      0.18446  1.0000
  Ge          0.11962      0.72893      0.51968  1.0000
  Si          0.70613      0.62503      0.35532  1.0000
  Ge          0.39257      0.10924      0.68779  1.0000
  Ge          0.90523      0.29372      0.02086  1.0000
  Si          0.39941      0.29815      0.48790  1.0000
  Ge          0.88173      0.59358      0.15357  1.0000
  Ge          0.71049      0.12939      0.82168  1.0000
  Ge          0.60419      0.71358      0.98510  1.0000
  Si          0.11655      0.41350      0.65107  1.0000
  Ge          0.29768      0.91033      0.31830  1.0000
  Si          0.24598      0.34099      0.95501  1.0000
  Si          0.67150      0.92842      0.28689  1.0000
  Si          0.10141      0.77146      0.62253  1.0000
  Si          0.75456      0.67271      0.45775  1.0000
  Si          0.33750      0.11446      0.79051  1.0000
  Si          0.90066      0.23834      0.12402  1.0000
  Ge          0.33707      0.25706      0.38532  1.0000
  Si          0.90382      0.66369      0.05129  1.0000
  Si          0.75961      0.10657      0.71938  1.0000
  Si          0.65859      0.77870      0.88306  1.0000
  Si          0.11280      0.35575      0.54883  1.0000
  Si          0.23068      0.89441      0.21682  1.0000
  Si          0.97289      0.11690      0.96849  1.0000
  Si          0.88367      0.86602      0.30282  1.0000
  Si          0.14752      0.04150      0.63590  1.0000
  Si          0.03209      0.89518      0.46901  1.0000
  Si          0.11422      0.16681      0.80151  1.0000
  Si          0.85068      0.96439      0.13541  1.0000
  Si          0.11574      0.97837      0.36878  1.0000
  Si          0.85430      0.88682      0.03527  1.0000
  Si          0.03340      0.16228      0.70075  1.0000
  Si          0.88450      0.05178      0.86852  1.0000
  Si          0.15133      0.12518      0.53573  1.0000
  Si          0.95512      0.84159      0.20261  1.0000
  O2          0.94016      0.99822      0.00045  1.0000
  O2          0.00278      0.94394      0.33426  1.0000
  O2          0.06295      0.07669      0.66784  1.0000
  O2          0.06685      0.01212      0.50212  1.0000
  O2          0.99377      0.07752      0.83264  1.0000
  O2          0.93293      0.93080      0.16871  1.0000
  O1          0.35582      0.59843      0.34948  1.0000
  O1          0.42457      0.77829      0.68463  1.0000
  O1          0.22910      0.65656      0.01484  1.0000
  O1          0.65758      0.45979      0.83463  1.0000
  O1          0.55018      0.21108      0.16689  1.0000
  O1          0.77534      0.34962      0.50170  1.0000
  O1          0.56942      0.33818      0.00231  1.0000
  O1          0.77717      0.44333      0.67045  1.0000
  O1          0.67390      0.25817      0.33286  1.0000
  O1          0.44210      0.67077      0.51980  1.0000
  O1          0.21712      0.55154      0.18307  1.0000
  O1          0.33043      0.79674      0.85043  1.0000
  O2          0.12109      0.21749      0.97512  1.0000
  O2          0.79619      0.92929      0.30650  1.0000
  O2          0.09842      0.89313      0.64332  1.0000
  O2          0.88365      0.79372      0.47583  1.0000
  O2          0.21872      0.12529      0.81014  1.0000
  O2          0.89148      0.11017      0.14405  1.0000
  O3          0.20743      0.12555      0.36328  1.0000
  O2          0.89792      0.78320      0.03071  1.0000
  O2          0.88439      0.10946      0.69884  1.0000
  O2          0.77315      0.90804      0.86215  1.0000
  O2          0.10338      0.22535      0.53221  1.0000
  O2          0.10000      0.87602      0.19649  1.0000
  O2          0.93026      0.87074      0.25257  1.0000
  O2          0.12800      0.06864      0.58518  1.0000
  O2          0.94354      0.07128      0.91757  1.0000
  O2          0.07316      0.14807      0.75022  1.0000
  O2          0.88047      0.94406      0.08487  1.0000
  O2          0.05842      0.94607      0.41870  1.0000
  O3          0.89283      0.18092      0.98247  1.0000
  O2          0.80741      0.72160      0.31908  1.0000
  O3          0.29217      0.11971      0.64880  1.0000
  O3          0.11434      0.83196      0.48063  1.0000
  O3          0.17229      0.31036      0.81499  1.0000
  O3          0.70407      0.88019      0.14665  1.0000
  O3          0.19138      0.90652      0.35860  1.0000
  O3          0.70799      0.82080      0.02436  1.0000
  O2          0.10893      0.30897      0.68645  1.0000
  O3          0.82279      0.13770      0.85991  1.0000
  O2          0.30107      0.19610      0.52453  1.0000
  O3          0.86963      0.69588      0.19170  1.0000
  O1          0.35833      0.65347      0.25858  1.0000
  O1          0.37697      0.72118      0.59424  1.0000
  O1          0.28954      0.65392      0.92516  1.0000
  O1          0.65455      0.36838      0.75012  1.0000
  O1          0.64532      0.29557      0.08257  1.0000
  O1          0.69621      0.35305      0.41671  1.0000
  O3          0.36426      0.32105      0.96203  1.0000
  O3          0.69050      0.06589      0.29438  1.0000
  O3          0.96515      0.64860      0.62959  1.0000
  O3          0.63775      0.68482      0.47283  1.0000
  O3          0.31557      0.97843      0.80375  1.0000
  O3          0.03641      0.35377      0.13669  1.0000
  O1          0.32662      0.38058      0.36548  1.0000
  O3          0.02655      0.66762      0.03134  1.0000
  O3          0.64126      0.98478      0.69950  1.0000
  O3          0.66206      0.66555      0.85834  1.0000
  O3          0.99350      0.35528      0.52620  1.0000
  O3          0.34339      0.00994      0.19102  1.0000
  O1          0.78372      0.31839      0.00631  1.0000
  O3          0.69098      0.49100      0.34235  1.0000
  O1          0.53932      0.23247      0.67359  1.0000
  O1          0.25333      0.72314      0.51001  1.0000
  O1          0.30455      0.55697      0.84379  1.0000
  O1          0.45619      0.76482      0.17688  1.0000
  O1          0.29250      0.77061      0.32213  1.0000
  O1          0.46912      0.71909      0.98966  1.0000
  O3          0.24797      0.53815      0.65682  1.0000
  O1          0.72070      0.27266      0.82106  1.0000
  O3          0.52702      0.29051      0.48688  1.0000
  O1          0.73895      0.45985      0.15306  1.0000
  O3          0.77544      0.53944      0.03651  1.0000
  O1          0.46645      0.25178      0.36499  1.0000
  O3          0.76667      0.23593      0.70389  1.0000
  O3          0.24167      0.47365      0.53317  1.0000
  O3          0.53038      0.78156      0.87414  1.0000
  O3          0.22963      0.76402      0.20879  1.0000
  O3          0.54903      0.83341      0.31510  1.0000
  O3          0.27519      0.46351      0.98298  1.0000
  O3          0.19911      0.74770      0.64952  1.0000
  O3          0.46542      0.21457      0.81414  1.0000
  O3          0.74189      0.54697      0.47975  1.0000
  O3          0.79899      0.26537      0.14746  1.0000
  O3          0.21468      0.34759      0.90368  1.0000
  O3          0.66637      0.89039      0.23564  1.0000
  O3          0.13008      0.80246      0.57050  1.0000
  O2          0.77056      0.67023      0.40411  1.0000
  O3          0.33649      0.13481      0.73780  1.0000
  O3          0.87976      0.21477      0.07146  1.0000
  O3          0.32067      0.24347      0.44294  1.0000
  O3          0.91319      0.67929      0.10462  1.0000
  O3          0.76497      0.09780      0.77271  1.0000
  O3          0.68452      0.77699      0.93553  1.0000
  O2          0.09827      0.34742      0.60289  1.0000
  O3          0.23453      0.92698      0.26900  1.0000
  O1          0.57265      0.56399      0.99592  1.0000
  O1          0.44739      0.03021      0.32867  1.0000
  O3          0.00713      0.44646      0.66154  1.0000
  O3          0.43904      0.43827      0.50173  1.0000
  O1          0.56026      0.02009      0.83719  1.0000
  O1          0.99358      0.55689      0.16908  1.0000
  O3          0.57786      0.62699      0.35056  1.0000
  O1          0.04487      0.42987      0.01518  1.0000
  O1          0.38980      0.97015      0.68221  1.0000
  O1          0.42538      0.41367      0.84114  1.0000
  O1          0.98482      0.58499      0.51197  1.0000
  O1          0.59721      0.02792      0.17277  1.0000
  O1          0.56725      0.17477      0.25012  1.0000
  O1          0.85616      0.41905      0.58640  1.0000
  O1          0.59908      0.44265      0.91829  1.0000
  O1          0.42965      0.85024      0.76579  1.0000
  O1          0.16426      0.59395      0.09757  1.0000
  O1          0.40457      0.58184      0.43273  1.0000
  F           0.46319      0.93559      0.24265  1.0000
  F           0.14027      0.58031      0.57630  1.0000
  F           0.46509      0.54856      0.91005  1.0000
  F           0.53635      0.08597      0.74658  1.0000
  F           0.92878      0.46413      0.07926  1.0000
  F           0.52543      0.46397      0.41241  1.0000
