data_cif

_audit_creation_method             'generated by GULP'

_symmetry_space_group_name_H-M     'P 1'
_symmetry_Int_Tables_number        1
_symmetry_cell_setting             triclinic

_cell_length_a                       12.2635
_cell_length_b                       12.2438
_cell_length_c                       30.1332
_cell_angle_alpha                   89.9631
_cell_angle_beta                    90.0455
_cell_angle_gamma                  120.1549

loop_
_atom_site_label
_atom_site_fract_x
_atom_site_fract_y
_atom_site_fract_z
_atom_site_occupancy
  Ge          0.69960      0.37570      0.03389  1.0000
  Ge          0.64385      0.35091      0.36832  1.0000
  Ge          0.67867      0.31555      0.70187  1.0000
  Ge          0.32171      0.65520      0.54000  1.0000
  Ge          0.36730      0.69161      0.87309  1.0000
  Ge          0.32865      0.69717      0.20685  1.0000
  Ge          0.40210      0.71046      0.31075  1.0000
  Ge          0.31031      0.62271      0.97707  1.0000
  Ge          0.30637      0.70375      0.64479  1.0000
  Ge          0.62046      0.32877      0.80584  1.0000
  Ge          0.70901      0.40180      0.47248  1.0000
  Ge          0.68843      0.30623      0.13821  1.0000
  Ge          0.52571      0.42344      0.96945  1.0000
  Ge          0.60007      0.13380      0.30126  1.0000
  Ge          0.89930      0.49105      0.63616  1.0000
  Ge          0.49580      0.60640      0.47776  1.0000
  Ge          0.41422      0.91472      0.81067  1.0000
  Ge          0.10850      0.52310      0.14280  1.0000
  Ge          0.45086      0.53945      0.37926  1.0000
  Ge          0.08996      0.57182      0.04344  1.0000
  Ge          0.47816      0.92437      0.71135  1.0000
  Ge          0.56760      0.49949      0.87077  1.0000
  Ge          0.93201      0.45378      0.53724  1.0000
  Ge          0.51777      0.08601      0.20342  1.0000
  Ge          0.28814      0.40872      0.85208  1.0000
  Ge          0.61424      0.90307      0.18431  1.0000
  Ge          0.11778      0.73357      0.51856  1.0000
  Si          0.72460      0.63452      0.35489  1.0000
  Ge          0.39170      0.11302      0.68655  1.0000
  Ge          0.90484      0.29459      0.01927  1.0000
  Ge          0.41711      0.31265      0.48619  1.0000
  Ge          0.89203      0.59908      0.15228  1.0000
  Ge          0.70918      0.12660      0.82014  1.0000
  Ge          0.60450      0.71547      0.98457  1.0000
  Si          0.10997      0.41455      0.65079  1.0000
  Ge          0.31039      0.91406      0.31835  1.0000
  Si          0.24559      0.34229      0.95448  1.0000
  Si          0.68350      0.93217      0.28574  1.0000
  Si          0.09406      0.77339      0.62132  1.0000
  Si          0.77314      0.68483      0.45667  1.0000
  Si          0.33566      0.11271      0.78916  1.0000
  Si          0.90808      0.24288      0.12241  1.0000
  Si          0.35336      0.26082      0.38434  1.0000
  Si          0.90517      0.66547      0.05005  1.0000
  Si          0.75795      0.10770      0.71795  1.0000
  Si          0.65907      0.77721      0.88252  1.0000
  Si          0.11785      0.36372      0.54923  1.0000
  Si          0.24129      0.89849      0.21591  1.0000
  Si          0.97256      0.11795      0.96738  1.0000
  Si          0.89983      0.87612      0.30220  1.0000
  Si          0.14721      0.04725      0.63450  1.0000
  Si          0.04882      0.91024      0.46756  1.0000
  Si          0.11268      0.16450      0.80032  1.0000
  Si          0.85858      0.96871      0.13470  1.0000
  Si          0.13218      0.98699      0.36754  1.0000
  Si          0.85563      0.88889      0.03447  1.0000
  Si          0.03103      0.16413      0.69980  1.0000
  Si          0.88458      0.05039      0.86730  1.0000
  Si          0.16590      0.13725      0.53481  1.0000
  Si          0.96686      0.84836      0.20185  1.0000
  O2          0.94041      0.99970      0.99949  1.0000
  O2          0.02274      0.96171      0.33202  1.0000
  O2          0.06178      0.08174      0.66589  1.0000
  O2          0.07968      0.02880      0.49927  1.0000
  O2          0.99286      0.07570      0.83146  1.0000
  O2          0.94196      0.93499      0.16749  1.0000
  O1          0.36827      0.59020      0.34410  1.0000
  O1          0.42372      0.78265      0.68010  1.0000
  O1          0.22864      0.66042      0.01122  1.0000
  O1          0.65641      0.45595      0.83586  1.0000
  O1          0.55929      0.21612      0.16748  1.0000
  O1          0.79896      0.36464      0.50260  1.0000
  O1          0.56737      0.33816      0.00333  1.0000
  O1          0.77656      0.44838      0.67179  1.0000
  O1          0.68366      0.26400      0.33432  1.0000
  O1          0.46054      0.69215      0.51374  1.0000
  O1          0.23062      0.56014      0.17857  1.0000
  O1          0.33042      0.79377      0.84714  1.0000
  O2          0.12031      0.21977      0.97462  1.0000
  O2          0.80898      0.93518      0.30597  1.0000
  O2          0.09777      0.89862      0.64197  1.0000
  O2          0.90191      0.80545      0.47511  1.0000
  O2          0.21629      0.12174      0.80861  1.0000
  O2          0.90057      0.11541      0.14257  1.0000
  O2          0.23581      0.13458      0.36301  1.0000
  O2          0.89730      0.78392      0.02944  1.0000
  O2          0.88200      0.11020      0.69752  1.0000
  O2          0.77409      0.90555      0.86137  1.0000
  O2          0.12941      0.24629      0.53052  1.0000
  O2          0.11237      0.88597      0.19617  1.0000
  O2          0.94091      0.87761      0.25154  1.0000
  O2          0.12999      0.07564      0.58365  1.0000
  O2          0.94458      0.07214      0.91640  1.0000
  O2          0.07060      0.14698      0.74903  1.0000
  O2          0.88490      0.94632      0.08406  1.0000
  O2          0.07201      0.95572      0.41659  1.0000
  O3          0.89160      0.18107      0.98092  1.0000
  O2          0.82839      0.73224      0.31970  1.0000
  O3          0.29160      0.12609      0.64805  1.0000
  O3          0.13264      0.85007      0.48089  1.0000
  O3          0.17219      0.30834      0.81418  1.0000
  O3          0.71222      0.88503      0.14613  1.0000
  O3          0.19860      0.90740      0.35651  1.0000
  O3          0.70905      0.82359      0.02384  1.0000
  O2          0.10492      0.31220      0.68674  1.0000
  O3          0.82187      0.13523      0.85841  1.0000
  O3          0.31254      0.20025      0.52487  1.0000
  O3          0.88283      0.70186      0.19100  1.0000
  O1          0.32145      0.65638      0.26092  1.0000
  O1          0.36189      0.72231      0.59108  1.0000
  O1          0.29206      0.65606      0.92278  1.0000
  O1          0.65157      0.36815      0.75047  1.0000
  O1          0.64896      0.29777      0.08289  1.0000
  O1          0.71964      0.36995      0.41724  1.0000
  O3          0.36293      0.32159      0.96240  1.0000
  O3          0.67848      0.04821      0.30799  1.0000
  O3          0.95766      0.65390      0.63026  1.0000
  O3          0.65904      0.70605      0.46948  1.0000
  O3          0.31364      0.97561      0.80118  1.0000
  O3          0.04356      0.35974      0.13456  1.0000
  O3          0.35003      0.37871      0.36359  1.0000
  O3          0.02675      0.66996      0.02934  1.0000
  O3          0.63925      0.98672      0.69716  1.0000
  O3          0.66170      0.66263      0.85856  1.0000
  O3          0.99747      0.35597      0.52627  1.0000
  O3          0.35392      0.03332      0.20108  1.0000
  O1          0.78114      0.31679      0.00591  1.0000
  O3          0.70131      0.49672      0.34228  1.0000
  O1          0.53885      0.23566      0.67311  1.0000
  O1          0.25041      0.72200      0.51009  1.0000
  O1          0.30655      0.55517      0.84218  1.0000
  O1          0.47847      0.75778      0.18543  1.0000
  O1          0.34427      0.80131      0.33400  1.0000
  O1          0.47018      0.72203      0.98856  1.0000
  O3          0.24140      0.54137      0.65610  1.0000
  O1          0.71902      0.26994      0.82032  1.0000
  O1          0.55138      0.30462      0.48721  1.0000
  O1          0.75002      0.46421      0.15296  1.0000
  O3          0.77632      0.54006      0.03591  1.0000
  O3          0.48076      0.26040      0.37118  1.0000
  O3          0.76492      0.23798      0.70388  1.0000
  O3          0.24563      0.49049      0.53615  1.0000
  O3          0.53186      0.78100      0.87274  1.0000
  O3          0.25929      0.78821      0.19393  1.0000
  O3          0.56123      0.80172      0.29812  1.0000
  O3          0.27548      0.46638      0.98179  1.0000
  O3          0.18988      0.74452      0.64799  1.0000
  O3          0.46347      0.21125      0.81368  1.0000
  O3          0.74823      0.55845      0.48087  1.0000
  O3          0.80459      0.26541      0.14639  1.0000
  O3          0.21462      0.34713      0.90295  1.0000
  O3          0.70353      0.94370      0.23301  1.0000
  O3          0.12603      0.80515      0.56966  1.0000
  O2          0.79164      0.67898      0.40348  1.0000
  O3          0.33607      0.13681      0.73676  1.0000
  O3          0.88461      0.21797      0.06997  1.0000
  O3          0.33188      0.25197      0.43748  1.0000
  O3          0.91818      0.68298      0.10327  1.0000
  O3          0.76289      0.09564      0.77114  1.0000
  O3          0.68451      0.77755      0.93515  1.0000
  O2          0.09886      0.34911      0.60290  1.0000
  O3          0.22623      0.88095      0.26903  1.0000
  O1          0.57192      0.56552      0.99601  1.0000
  O1          0.44605      0.05601      0.32065  1.0000
  O3          0.99885      0.44390      0.66023  1.0000
  O1          0.45066      0.46064      0.50147  1.0000
  O1          0.55889      0.01615      0.83469  1.0000
  O1          0.00699      0.56588      0.16690  1.0000
  O3          0.59675      0.63667      0.35067  1.0000
  O1          0.04311      0.43188      0.01234  1.0000
  O1          0.38729      0.97295      0.68009  1.0000
  O1          0.42454      0.40941      0.84150  1.0000
  O1          0.98427      0.59580      0.50652  1.0000
  O1          0.58519      0.01897      0.16840  1.0000
  O1          0.60506      0.18306      0.24822  1.0000
  O1          0.84282      0.42283      0.58587  1.0000
  O1          0.59779      0.44105      0.91933  1.0000
  O1          0.42654      0.84845      0.76227  1.0000
  O1          0.17073      0.59794      0.09362  1.0000
  O1          0.42142      0.59583      0.42842  1.0000
  F           0.47485      0.94189      0.24319  1.0000
  F           0.08228      0.55985      0.57423  1.0000
  F           0.46508      0.54774      0.90969  1.0000
  F           0.53425      0.08522      0.74511  1.0000
  F           0.93333      0.46769      0.07790  1.0000
  F           0.54287      0.48059      0.41540  1.0000
