data_cif

_audit_creation_method             'generated by GULP'

_symmetry_space_group_name_H-M     'P 1'
_symmetry_Int_Tables_number        1
_symmetry_cell_setting             triclinic

_cell_length_a                       12.2464
_cell_length_b                       12.2431
_cell_length_c                       30.1228
_cell_angle_alpha                   90.0682
_cell_angle_beta                    89.8239
_cell_angle_gamma                  119.8296

loop_
_atom_site_label
_atom_site_fract_x
_atom_site_fract_y
_atom_site_fract_z
_atom_site_occupancy
  Ge          0.69960      0.37570      0.03389  1.0000
  Ge          0.63541      0.33767      0.36623  1.0000
  Ge          0.67664      0.31122      0.70033  1.0000
  Ge          0.31640      0.64228      0.53681  1.0000
  Ge          0.37478      0.68773      0.87049  1.0000
  Ge          0.33289      0.69672      0.20288  1.0000
  Ge          0.39441      0.70835      0.30789  1.0000
  Ge          0.31083      0.61992      0.97432  1.0000
  Ge          0.29792      0.68934      0.64135  1.0000
  Ge          0.61891      0.31571      0.80502  1.0000
  Ge          0.70529      0.39722      0.47007  1.0000
  Ge          0.69480      0.31015      0.13822  1.0000
  Ge          0.52294      0.41861      0.96963  1.0000
  Ge          0.59016      0.11554      0.30155  1.0000
  Ge          0.89276      0.48524      0.63411  1.0000
  Ge          0.49628      0.60180      0.47373  1.0000
  Ge          0.41864      0.91088      0.80786  1.0000
  Ge          0.11050      0.52241      0.14007  1.0000
  Ge          0.44362      0.53699      0.37433  1.0000
  Ge          0.09002      0.57040      0.04082  1.0000
  Ge          0.47270      0.90896      0.70712  1.0000
  Ge          0.57013      0.48968      0.87051  1.0000
  Ge          0.92643      0.44640      0.53520  1.0000
  Ge          0.52263      0.08608      0.20247  1.0000
  Ge          0.29290      0.40449      0.85018  1.0000
  Ge          0.61655      0.90099      0.18270  1.0000
  Ge          0.11377      0.72349      0.51585  1.0000
  Ge          0.71933      0.62357      0.35026  1.0000
  Ge          0.39282      0.10530      0.68449  1.0000
  Ge          0.90417      0.29409      0.01777  1.0000
  Ge          0.41397      0.30779      0.48352  1.0000
  Ge          0.89584      0.60169      0.15058  1.0000
  Si          0.70683      0.11746      0.81872  1.0000
  Ge          0.60407      0.71125      0.98322  1.0000
  Si          0.10051      0.40337      0.64807  1.0000
  Si          0.30275      0.90510      0.31514  1.0000
  Si          0.24443      0.33877      0.95260  1.0000
  Si          0.67726      0.92090      0.28566  1.0000
  Si          0.09014      0.76505      0.61853  1.0000
  Si          0.77333      0.68092      0.45299  1.0000
  Si          0.33395      0.10459      0.78695  1.0000
  Si          0.91200      0.24435      0.12064  1.0000
  Si          0.34755      0.25766      0.38150  1.0000
  Si          0.90527      0.66481      0.04822  1.0000
  Ge          0.75298      0.09862      0.71640  1.0000
  Si          0.66439      0.76803      0.88102  1.0000
  Si          0.10999      0.35282      0.54677  1.0000
  Si          0.24649      0.90087      0.21347  1.0000
  Si          0.97003      0.11679      0.96482  1.0000
  Si          0.89836      0.86840      0.29878  1.0000
  Si          0.15046      0.04056      0.63156  1.0000
  Si          0.04869      0.90223      0.46456  1.0000
  Si          0.11386      0.16120      0.79839  1.0000
  Si          0.86280      0.97078      0.13189  1.0000
  Si          0.13119      0.98426      0.36403  1.0000
  Si          0.85496      0.88786      0.03168  1.0000
  Si          0.03019      0.15518      0.69753  1.0000
  Si          0.88102      0.04214      0.86469  1.0000
  Si          0.16316      0.12959      0.53193  1.0000
  Si          0.97225      0.85317      0.19908  1.0000
  O2          0.93755      0.99653      0.99585  1.0000
  O2          0.01762      0.95332      0.33038  1.0000
  O2          0.07079      0.07965      0.66399  1.0000
  O2          0.08080      0.02186      0.49593  1.0000
  O2          0.99213      0.07611      0.82921  1.0000
  O2          0.94960      0.93817      0.16336  1.0000
  O1          0.35604      0.58996      0.34265  1.0000
  O1          0.41346      0.76529      0.67744  1.0000
  O1          0.22728      0.65784      0.00776  1.0000
  O1          0.65779      0.43957      0.83712  1.0000
  O1          0.56844      0.22091      0.16884  1.0000
  O1          0.79354      0.35884      0.50063  1.0000
  O1          0.56477      0.33612      0.00481  1.0000
  O1          0.77116      0.44549      0.67005  1.0000
  O1          0.67013      0.23791      0.33727  1.0000
  O1          0.45620      0.68250      0.51064  1.0000
  O1          0.23274      0.55941      0.17565  1.0000
  O1          0.33957      0.79213      0.84509  1.0000
  O2          0.11774      0.21712      0.97197  1.0000
  O2          0.79817      0.91646      0.30643  1.0000
  O2          0.09625      0.89138      0.63904  1.0000
  O2          0.90152      0.80028      0.47241  1.0000
  O2          0.21407      0.11315      0.80659  1.0000
  O2          0.90496      0.11702      0.14056  1.0000
  O2          0.22674      0.13293      0.36122  1.0000
  O2          0.89695      0.78271      0.02729  1.0000
  O3          0.88238      0.09210      0.69521  1.0000
  O2          0.78394      0.89387      0.86055  1.0000
  O2          0.12134      0.23495      0.52811  1.0000
  O2          0.11794      0.89042      0.19491  1.0000
  O2          0.94504      0.88772      0.24796  1.0000
  O2          0.13071      0.06823      0.58081  1.0000
  O2          0.94132      0.07444      0.91359  1.0000
  O2          0.07185      0.14429      0.74729  1.0000
  O2          0.88581      0.94870      0.08076  1.0000
  O2          0.07512      0.94583      0.41342  1.0000
  O3          0.88954      0.17964      0.97955  1.0000
  O3          0.83326      0.72392      0.31193  1.0000
  O3          0.29481      0.11598      0.64434  1.0000
  O3          0.13105      0.84069      0.47826  1.0000
  O3          0.17807      0.30514      0.81200  1.0000
  O3          0.71846      0.88654      0.14499  1.0000
  O2          0.20468      0.90966      0.35098  1.0000
  O3          0.70797      0.82111      0.02193  1.0000
  O2          0.09473      0.30300      0.68468  1.0000
  O2          0.80561      0.11757      0.85561  1.0000
  O3          0.31027      0.19644      0.52211  1.0000
  O3          0.88944      0.70646      0.18923  1.0000
  O1          0.35793      0.65472      0.25396  1.0000
  O1          0.35535      0.71036      0.58787  1.0000
  O1          0.29629      0.65266      0.91962  1.0000
  O1          0.65242      0.36122      0.75021  1.0000
  O1          0.65234      0.29864      0.08319  1.0000
  O1          0.71583      0.36748      0.41471  1.0000
  O3          0.36106      0.31712      0.96172  1.0000
  O3          0.69422      0.05681      0.29540  1.0000
  O3          0.95284      0.64786      0.62734  1.0000
  O3          0.65785      0.70289      0.46465  1.0000
  O3          0.31540      0.96884      0.79876  1.0000
  O3          0.04883      0.36020      0.13125  1.0000
  O3          0.34548      0.37584      0.36033  1.0000
  O3          0.02563      0.66781      0.02673  1.0000
  O1          0.63051      0.96804      0.69349  1.0000
  O3          0.66617      0.65175      0.85780  1.0000
  O3          0.99167      0.34803      0.52337  1.0000
  O3          0.35970      0.02137      0.19091  1.0000
  O1          0.78062      0.31722      0.00497  1.0000
  O1          0.69522      0.47657      0.33701  1.0000
  O1          0.53699      0.23145      0.67157  1.0000
  O1          0.24386      0.70752      0.50674  1.0000
  O1          0.31381      0.55157      0.83952  1.0000
  O1          0.47212      0.76934      0.17356  1.0000
  O3          0.29734      0.77331      0.31984  1.0000
  O1          0.47004      0.71917      0.98604  1.0000
  O3          0.23360      0.52782      0.65214  1.0000
  O3          0.71689      0.25225      0.81769  1.0000
  O1          0.54724      0.29791      0.48370  1.0000
  O1          0.75369      0.46805      0.15219  1.0000
  O3          0.77551      0.53973      0.03538  1.0000
  O3          0.47153      0.25110      0.36802  1.0000
  O1          0.76612      0.23770      0.69920  1.0000
  O3          0.23980      0.47787      0.53451  1.0000
  O3          0.53907      0.77448      0.86998  1.0000
  O3          0.24464      0.77316      0.19980  1.0000
  O3          0.55169      0.82404      0.31166  1.0000
  O3          0.27421      0.46327      0.97956  1.0000
  O3          0.18360      0.73321      0.64547  1.0000
  O3          0.46095      0.20285      0.81157  1.0000
  O3          0.74331      0.55359      0.47792  1.0000
  O3          0.81416      0.27351      0.14589  1.0000
  O3          0.21706      0.34382      0.90076  1.0000
  O3          0.67845      0.89097      0.23384  1.0000
  O3          0.12395      0.79610      0.56692  1.0000
  O3          0.79755      0.67966      0.40063  1.0000
  O3          0.33420      0.12750      0.73448  1.0000
  O3          0.88393      0.21760      0.06850  1.0000
  O3          0.32905      0.25361      0.43465  1.0000
  O3          0.92083      0.68440      0.10136  1.0000
  O3          0.75767      0.08698      0.77369  1.0000
  O3          0.68622      0.76904      0.93384  1.0000
  O2          0.08651      0.33596      0.60029  1.0000
  O2          0.25016      0.91830      0.26722  1.0000
  O1          0.56824      0.56108      0.99560  1.0000
  O3          0.44312      0.01509      0.32526  1.0000
  O3          0.99225      0.43708      0.65793  1.0000
  O1          0.45283      0.45756      0.49794  1.0000
  O3          0.56421      0.01551      0.83107  1.0000
  O1          0.00941      0.56584      0.16444  1.0000
  O1          0.58360      0.62746      0.34331  1.0000
  O1          0.04258      0.42974      0.01023  1.0000
  O1          0.38589      0.96390      0.67728  1.0000
  O1          0.42871      0.40225      0.84050  1.0000
  O1          0.97865      0.58796      0.50432  1.0000
  O1          0.61309      0.03509      0.17134  1.0000
  O1          0.57926      0.17338      0.25152  1.0000
  O1          0.83694      0.41633      0.58387  1.0000
  O1          0.59742      0.43365      0.91999  1.0000
  O1          0.42746      0.84255      0.75954  1.0000
  O1          0.17158      0.59800      0.09080  1.0000
  O1          0.41895      0.58964      0.42509  1.0000
  F           0.47722      0.93490      0.23856  1.0000
  F           0.07604      0.54999      0.57174  1.0000
  F           0.46656      0.54184      0.90808  1.0000
  F           0.53849      0.08148      0.74034  1.0000
  F           0.93447      0.46776      0.07597  1.0000
  F           0.54793      0.48161      0.40869  1.0000
