data_cif

_audit_creation_method             'generated by GULP'

_symmetry_space_group_name_H-M     'P 1'
_symmetry_Int_Tables_number        1
_symmetry_cell_setting             triclinic

_cell_length_a                       12.2491
_cell_length_b                       12.2425
_cell_length_c                       30.0959
_cell_angle_alpha                   90.1404
_cell_angle_beta                    89.9524
_cell_angle_gamma                  119.9639

loop_
_atom_site_label
_atom_site_fract_x
_atom_site_fract_y
_atom_site_fract_z
_atom_site_occupancy
  Ge          0.69960      0.37570      0.03389  1.0000
  Ge          0.63478      0.33999      0.36752  1.0000
  Ge          0.67642      0.31176      0.70082  1.0000
  Ge          0.32154      0.64999      0.53941  1.0000
  Ge          0.36574      0.68880      0.87245  1.0000
  Ge          0.33060      0.69553      0.20540  1.0000
  Ge          0.39459      0.71106      0.31043  1.0000
  Ge          0.30900      0.62062      0.97659  1.0000
  Ge          0.30462      0.69920      0.64434  1.0000
  Ge          0.61809      0.32579      0.80492  1.0000
  Ge          0.70716      0.39930      0.47154  1.0000
  Ge          0.69079      0.30893      0.13836  1.0000
  Ge          0.52524      0.42194      0.96899  1.0000
  Ge          0.59004      0.11847      0.30204  1.0000
  Ge          0.89722      0.48764      0.63527  1.0000
  Ge          0.49838      0.60500      0.47677  1.0000
  Ge          0.41270      0.91153      0.81007  1.0000
  Ge          0.10691      0.52136      0.14281  1.0000
  Ge          0.44377      0.54026      0.37722  1.0000
  Ge          0.08906      0.57052      0.04338  1.0000
  Ge          0.47671      0.92057      0.71058  1.0000
  Ge          0.56606      0.49733      0.87017  1.0000
  Ge          0.93067      0.45059      0.53616  1.0000
  Ge          0.52003      0.08513      0.20293  1.0000
  Ge          0.28655      0.40592      0.85119  1.0000
  Ge          0.61376      0.89947      0.18419  1.0000
  Ge          0.11777      0.72904      0.51806  1.0000
  Ge          0.71876      0.62647      0.35247  1.0000
  Ge          0.39000      0.10887      0.68553  1.0000
  Ge          0.90462      0.29386      0.01889  1.0000
  Ge          0.41636      0.31069      0.48604  1.0000
  Ge          0.89204      0.60051      0.15221  1.0000
  Ge          0.70693      0.12355      0.81926  1.0000
  Ge          0.60340      0.71395      0.98384  1.0000
  Si          0.10780      0.41082      0.65009  1.0000
  Si          0.30265      0.90782      0.31662  1.0000
  Si          0.24494      0.34041      0.95380  1.0000
  Si          0.67707      0.92355      0.28717  1.0000
  Si          0.09254      0.76921      0.62085  1.0000
  Si          0.77508      0.68339      0.45522  1.0000
  Si          0.33396      0.10941      0.78826  1.0000
  Si          0.90870      0.24317      0.12195  1.0000
  Si          0.34766      0.26072      0.38386  1.0000
  Si          0.90461      0.66501      0.04973  1.0000
  Si          0.75595      0.10388      0.71698  1.0000
  Si          0.65785      0.77489      0.88165  1.0000
  Si          0.11630      0.35980      0.54842  1.0000
  Si          0.24385      0.89951      0.21492  1.0000
  Si          0.97206      0.11677      0.96647  1.0000
  Si          0.89776      0.87073      0.30054  1.0000
  Si          0.14562      0.04307      0.63339  1.0000
  Si          0.05062      0.90575      0.46650  1.0000
  Si          0.11095      0.16166      0.79944  1.0000
  Si          0.86005      0.96978      0.13366  1.0000
  Si          0.13135      0.98689      0.36583  1.0000
  Si          0.85483      0.88828      0.03334  1.0000
  Si          0.02933      0.16073      0.69882  1.0000
  Si          0.88282      0.04784      0.86641  1.0000
  Si          0.16500      0.13352      0.53374  1.0000
  Si          0.96952      0.85240      0.20078  1.0000
  O2          0.93960      0.99791      0.99815  1.0000
  O2          0.01768      0.95599      0.33207  1.0000
  O2          0.06050      0.07880      0.66463  1.0000
  O2          0.08251      0.02683      0.49720  1.0000
  O2          0.99090      0.07299      0.83039  1.0000
  O2          0.94743      0.93825      0.16529  1.0000
  O1          0.35632      0.59403      0.34576  1.0000
  O1          0.42199      0.77817      0.67962  1.0000
  O1          0.22754      0.65837      0.01104  1.0000
  O1          0.65443      0.45294      0.83508  1.0000
  O1          0.56386      0.21814      0.16849  1.0000
  O1          0.79781      0.36226      0.50137  1.0000
  O1          0.56725      0.33772      0.00324  1.0000
  O1          0.77381      0.44430      0.67073  1.0000
  O1          0.66988      0.24194      0.33760  1.0000
  O1          0.46124      0.68835      0.51349  1.0000
  O1          0.22838      0.55708      0.17878  1.0000
  O1          0.32888      0.79110      0.84654  1.0000
  O2          0.11977      0.21797      0.97377  1.0000
  O2          0.79866      0.92017      0.30788  1.0000
  O2          0.09593      0.89476      0.64125  1.0000
  O2          0.90385      0.80273      0.47474  1.0000
  O2          0.21469      0.11894      0.80781  1.0000
  O2          0.90088      0.11588      0.14225  1.0000
  O2          0.22619      0.13598      0.36352  1.0000
  O2          0.89655      0.78306      0.02890  1.0000
  O2          0.88029      0.10653      0.69654  1.0000
  O2          0.77282      0.90304      0.86066  1.0000
  O2          0.12720      0.24170      0.52972  1.0000
  O2          0.11466      0.88778      0.19632  1.0000
  O2          0.94404      0.88819      0.24970  1.0000
  O2          0.12832      0.07028      0.58230  1.0000
  O2          0.94378      0.07101      0.91541  1.0000
  O2          0.06922      0.14387      0.74806  1.0000
  O2          0.88420      0.94800      0.08266  1.0000
  O2          0.07521      0.94698      0.41511  1.0000
  O3          0.89140      0.18030      0.98036  1.0000
  O3          0.83183      0.72637      0.31389  1.0000
  O3          0.28994      0.12161      0.64684  1.0000
  O3          0.13453      0.84635      0.48061  1.0000
  O3          0.17030      0.30540      0.81341  1.0000
  O3          0.71556      0.88453      0.14660  1.0000
  O2          0.20540      0.91320      0.35252  1.0000
  O3          0.70824      0.82286      0.02287  1.0000
  O2          0.10266      0.30857      0.68600  1.0000
  O3          0.81957      0.13231      0.85760  1.0000
  O3          0.31252      0.19889      0.52456  1.0000
  O3          0.88521      0.70547      0.19077  1.0000
  O1          0.35697      0.65535      0.25660  1.0000
  O1          0.36037      0.71710      0.59063  1.0000
  O1          0.29064      0.65373      0.92222  1.0000
  O1          0.64882      0.36456      0.74945  1.0000
  O1          0.64947      0.29852      0.08308  1.0000
  O1          0.71541      0.36853      0.41606  1.0000
  O3          0.36266      0.32007      0.96177  1.0000
  O3          0.69419      0.05990      0.29632  1.0000
  O3          0.95595      0.65038      0.62967  1.0000
  O3          0.66011      0.70544      0.46726  1.0000
  O3          0.31214      0.97265      0.80040  1.0000
  O3          0.04522      0.35917      0.13334  1.0000
  O3          0.34504      0.37892      0.36301  1.0000
  O3          0.02574      0.66856      0.02886  1.0000
  O3          0.63768      0.98288      0.69615  1.0000
  O3          0.66054      0.66003      0.85774  1.0000
  O3          0.99662      0.35288      0.52514  1.0000
  O3          0.35656      0.01957      0.19191  1.0000
  O1          0.78097      0.31657      0.00562  1.0000
  O1          0.69408      0.47946      0.33874  1.0000
  O1          0.53673      0.23139      0.67205  1.0000
  O1          0.24971      0.71611      0.50942  1.0000
  O1          0.30479      0.55235      0.84147  1.0000
  O1          0.46909      0.76678      0.17565  1.0000
  O3          0.29774      0.77642      0.32190  1.0000
  O1          0.46879      0.72027      0.98785  1.0000
  O3          0.23919      0.53701      0.65558  1.0000
  O1          0.71680      0.26680      0.81928  1.0000
  O1          0.54954      0.30057      0.48597  1.0000
  O1          0.74944      0.46659      0.15296  1.0000
  O3          0.77545      0.53977      0.03596  1.0000
  O3          0.47091      0.25370      0.36977  1.0000
  O3          0.76266      0.23397      0.70294  1.0000
  O3          0.24506      0.48540      0.53567  1.0000
  O3          0.53022      0.77819      0.87183  1.0000
  O3          0.24196      0.77144      0.20173  1.0000
  O3          0.55211      0.82746      0.31364  1.0000
  O3          0.27470      0.46457      0.98116  1.0000
  O3          0.18796      0.74015      0.64773  1.0000
  O3          0.46151      0.20825      0.81273  1.0000
  O3          0.74595      0.55584      0.47976  1.0000
  O3          0.80966      0.27192      0.14638  1.0000
  O3          0.21387      0.34508      0.90224  1.0000
  O3          0.67694      0.89165      0.23542  1.0000
  O3          0.12554      0.80073      0.56922  1.0000
  O3          0.79844      0.68253      0.40273  1.0000
  O3          0.33396      0.13279      0.73576  1.0000
  O3          0.88288      0.21675      0.06958  1.0000
  O3          0.33077      0.25648      0.43711  1.0000
  O3          0.91847      0.68355      0.10301  1.0000
  O3          0.76068      0.09188      0.77023  1.0000
  O3          0.68316      0.77541      0.93433  1.0000
  O2          0.09661      0.34518      0.60209  1.0000
  O2          0.24850      0.91877      0.26864  1.0000
  O1          0.57114      0.56435      0.99536  1.0000
  O3          0.44331      0.01900      0.32613  1.0000
  O3          0.99652      0.44030      0.65950  1.0000
  O1          0.45590      0.46069      0.50075  1.0000
  O1          0.55709      0.01342      0.83404  1.0000
  O1          0.00455      0.56372      0.16668  1.0000
  O1          0.58320      0.63093      0.34594  1.0000
  O1          0.04303      0.43036      0.01221  1.0000
  O1          0.38588      0.96888      0.67907  1.0000
  O1          0.42326      0.40694      0.84069  1.0000
  O1          0.98365      0.59251      0.50564  1.0000
  O1          0.60957      0.03282      0.17212  1.0000
  O1          0.57855      0.17452      0.25166  1.0000
  O1          0.84121      0.41994      0.58478  1.0000
  O1          0.59689      0.43910      0.91873  1.0000
  O1          0.42561      0.84527      0.76161  1.0000
  O1          0.16911      0.59801      0.09382  1.0000
  O1          0.41989      0.59233      0.42821  1.0000
  F           0.47544      0.93507      0.23986  1.0000
  F           0.08064      0.55581      0.57351  1.0000
  F           0.46412      0.54587      0.90889  1.0000
  F           0.53220      0.08135      0.74422  1.0000
  F           0.93241      0.46701      0.07735  1.0000
  F           0.54876      0.48463      0.41100  1.0000
