data_cif

_audit_creation_method             'generated by GULP'

_symmetry_space_group_name_H-M     'P 1'
_symmetry_Int_Tables_number        1
_symmetry_cell_setting             triclinic

_cell_length_a                       12.2813
_cell_length_b                       12.2563
_cell_length_c                       30.0448
_cell_angle_alpha                   89.9048
_cell_angle_beta                    89.9669
_cell_angle_gamma                  120.0104

loop_
_atom_site_label
_atom_site_fract_x
_atom_site_fract_y
_atom_site_fract_z
_atom_site_occupancy
  Ge          0.69960      0.37570      0.03389  1.0000
  Ge          0.63938      0.33053      0.36887  1.0000
  Ge          0.67222      0.30519      0.70037  1.0000
  Ge          0.31374      0.64152      0.53675  1.0000
  Si          0.36436      0.67998      0.86842  1.0000
  Ge          0.33346      0.69614      0.20171  1.0000
  Ge          0.39553      0.69606      0.30650  1.0000
  Ge          0.31037      0.61912      0.97278  1.0000
  Ge          0.30051      0.69249      0.64185  1.0000
  Ge          0.61105      0.31304      0.80438  1.0000
  Si          0.69808      0.38638      0.47222  1.0000
  Ge          0.69643      0.30956      0.13839  1.0000
  Si          0.52466      0.41160      0.96922  1.0000
  Ge          0.59666      0.11074      0.30491  1.0000
  Ge          0.89270      0.48216      0.63417  1.0000
  Ge          0.49004      0.59725      0.47283  1.0000
  Ge          0.40924      0.89787      0.80804  1.0000
  Ge          0.11289      0.52135      0.13735  1.0000
  Ge          0.44639      0.52620      0.37318  1.0000
  Ge          0.09006      0.56928      0.03788  1.0000
  Ge          0.47340      0.91276      0.70800  1.0000
  Ge          0.56486      0.48534      0.87124  1.0000
  Ge          0.92153      0.44572      0.53416  1.0000
  Ge          0.52751      0.08783      0.20539  1.0000
  Ge          0.29012      0.40188      0.84813  1.0000
  Ge          0.61811      0.90056      0.18405  1.0000
  Ge          0.11293      0.72345      0.51687  1.0000
  Ge          0.72348      0.61604      0.34904  1.0000
  Ge          0.38674      0.10108      0.68406  1.0000
  Ge          0.90173      0.29173      0.01634  1.0000
  Ge          0.41503      0.30478      0.48455  1.0000
  Ge          0.90070      0.60145      0.15031  1.0000
  Ge          0.70181      0.11222      0.81697  1.0000
  Ge          0.59877      0.69955      0.98440  1.0000
  Si          0.10186      0.40466      0.64828  1.0000
  Ge          0.30384      0.89743      0.31694  1.0000
  Ge          0.24407      0.33368      0.95271  1.0000
  Si          0.67752      0.91274      0.28714  1.0000
  Si          0.08896      0.76362      0.61969  1.0000
  Ge          0.77220      0.67122      0.45418  1.0000
  Si          0.32840      0.09538      0.78729  1.0000
  Si          0.91284      0.24278      0.11925  1.0000
  Si          0.35032      0.24627      0.38206  1.0000
  Si          0.90736      0.66387      0.04804  1.0000
  Si          0.75179      0.09611      0.71503  1.0000
  Ge          0.65562      0.76521      0.88050  1.0000
  Si          0.10659      0.35312      0.54645  1.0000
  Si          0.24934      0.90247      0.21431  1.0000
  Si          0.96557      0.10928      0.96522  1.0000
  Si          0.90019      0.86193      0.29839  1.0000
  Si          0.14301      0.03775      0.63231  1.0000
  Si          0.04798      0.90157      0.46684  1.0000
  Si          0.11312      0.15863      0.79704  1.0000
  Si          0.86306      0.96947      0.13244  1.0000
  Si          0.12739      0.97219      0.36602  1.0000
  Si          0.84719      0.87846      0.03300  1.0000
  Si          0.02565      0.15476      0.69703  1.0000
  Si          0.88183      0.04432      0.86411  1.0000
  Si          0.16229      0.13146      0.53282  1.0000
  Si          0.97674      0.85319      0.19859  1.0000
  O2          0.91838      0.98600      0.99602  1.0000
  O2          0.01785      0.94598      0.33073  1.0000
  O2          0.05696      0.07283      0.66310  1.0000
  O2          0.08294      0.02535      0.49611  1.0000
  O2          0.99502      0.07828      0.82956  1.0000
  O2          0.95115      0.93783      0.16349  1.0000
  O1          0.35852      0.57337      0.33917  1.0000
  O1          0.41887      0.77124      0.67667  1.0000
  O1          0.22323      0.65942      0.00317  1.0000
  O1          0.65025      0.43333      0.83826  1.0000
  O1          0.57415      0.22272      0.17107  1.0000
  O3          0.78565      0.35415      0.50012  1.0000
  O3          0.56644      0.33783      0.00282  1.0000
  O1          0.76988      0.43783      0.67016  1.0000
  O1          0.67869      0.23289      0.34128  1.0000
  O1          0.45007      0.67943      0.50897  1.0000
  O1          0.23623      0.56113      0.17279  1.0000
  O3          0.32479      0.77204      0.84414  1.0000
  O3          0.11284      0.19873      0.97384  1.0000
  O2          0.79821      0.90688      0.30696  1.0000
  O2          0.09331      0.88935      0.64013  1.0000
  O3          0.90530      0.79751      0.47776  1.0000
  O2          0.20952      0.10687      0.80590  1.0000
  O2          0.90671      0.11649      0.13987  1.0000
  O2          0.23244      0.11935      0.36180  1.0000
  O2          0.89957      0.78215      0.02748  1.0000
  O2          0.87688      0.10086      0.69464  1.0000
  O3          0.77612      0.90066      0.85623  1.0000
  O2          0.11812      0.23474      0.52855  1.0000
  O2          0.12251      0.89223      0.19340  1.0000
  O2          0.94928      0.88660      0.24770  1.0000
  O2          0.12667      0.06678      0.58129  1.0000
  O2          0.93778      0.06455      0.91391  1.0000
  O2          0.06604      0.13741      0.74617  1.0000
  O2          0.88185      0.94351      0.08136  1.0000
  O2          0.06492      0.94061      0.41488  1.0000
  O3          0.89153      0.18140      0.97725  1.0000
  O3          0.83530      0.71591      0.30969  1.0000
  O3          0.28688      0.11594      0.64591  1.0000
  O3          0.13396      0.84304      0.47952  1.0000
  O3          0.18047      0.30495      0.80799  1.0000
  O3          0.71940      0.88669      0.14629  1.0000
  O3          0.19400      0.89203      0.35573  1.0000
  O3          0.69884      0.79976      0.02618  1.0000
  O2          0.09839      0.30252      0.68402  1.0000
  O3          0.81489      0.12569      0.85573  1.0000
  O3          0.31009      0.19818      0.52407  1.0000
  O3          0.89477      0.70598      0.18900  1.0000
  O1          0.36337      0.65028      0.25145  1.0000
  O1          0.35494      0.70918      0.58786  1.0000
  O3          0.29998      0.64621      0.91635  1.0000
  O1          0.64152      0.35632      0.74897  1.0000
  O1          0.64997      0.29862      0.08338  1.0000
  O3          0.71129      0.36305      0.41990  1.0000
  O3          0.37453      0.31838      0.96281  1.0000
  O3          0.69802      0.05012      0.29714  1.0000
  O3          0.95246      0.64510      0.62909  1.0000
  O1          0.65055      0.69600      0.46650  1.0000
  O3          0.30815      0.95924      0.80024  1.0000
  O3          0.05010      0.35881      0.12951  1.0000
  O3          0.34744      0.36369      0.36079  1.0000
  O3          0.02483      0.66592      0.02494  1.0000
  O3          0.63419      0.97675      0.69329  1.0000
  O1          0.66462      0.64392      0.85737  1.0000
  O3          0.98785      0.34842      0.52315  1.0000
  O3          0.36566      0.02226      0.19218  1.0000
  O1          0.77682      0.31344      0.00504  1.0000
  O1          0.70152      0.46813      0.33874  1.0000
  O1          0.53312      0.22514      0.67142  1.0000
  O1          0.24252      0.70873      0.50708  1.0000
  O3          0.31101      0.55171      0.83986  1.0000
  O1          0.47219      0.77484      0.17232  1.0000
  O1          0.29665      0.75582      0.31928  1.0000
  O1          0.46693      0.71128      0.98781  1.0000
  O3          0.23376      0.53012      0.65310  1.0000
  O1          0.71124      0.25434      0.81599  1.0000
  O3          0.55051      0.29535      0.48550  1.0000
  O1          0.75839      0.46787      0.15226  1.0000
  O3          0.77595      0.53892      0.03645  1.0000
  O3          0.47593      0.24362      0.36829  1.0000
  O3          0.75812      0.22722      0.70270  1.0000
  O3          0.23600      0.47728      0.53343  1.0000
  O3          0.51682      0.76377      0.86774  1.0000
  O3          0.24583      0.77258      0.20224  1.0000
  O3          0.55141      0.81609      0.31288  1.0000
  O1          0.26605      0.46261      0.98096  1.0000
  O3          0.18514      0.73462      0.64595  1.0000
  O3          0.45506      0.19483      0.81176  1.0000
  O3          0.73376      0.53121      0.48039  1.0000
  O3          0.81489      0.27146      0.14417  1.0000
  O1          0.21259      0.33385      0.89731  1.0000
  O3          0.67560      0.88301      0.23503  1.0000
  O3          0.12050      0.79535      0.56791  1.0000
  O1          0.80292      0.67719      0.39851  1.0000
  O3          0.32803      0.11841      0.73472  1.0000
  O3          0.88439      0.21487      0.06702  1.0000
  O3          0.33349      0.24299      0.43542  1.0000
  O3          0.92700      0.68494      0.10107  1.0000
  O3          0.75414      0.07791      0.76813  1.0000
  O1          0.68190      0.77039      0.93687  1.0000
  O2          0.08672      0.33853      0.60018  1.0000
  O3          0.24561      0.92045      0.26740  1.0000
  O3          0.56064      0.54529      0.99282  1.0000
  O1          0.45301      0.01240      0.32986  1.0000
  O3          0.99159      0.43465      0.65839  1.0000
  O1          0.44646      0.45223      0.49732  1.0000
  O1          0.55269      0.99965      0.83215  1.0000
  O1          0.01459      0.56556      0.16303  1.0000
  O1          0.58637      0.61620      0.34162  1.0000
  O1          0.03974      0.42768      0.00782  1.0000
  O1          0.38372      0.96216      0.67648  1.0000
  O1          0.42538      0.39951      0.83945  1.0000
  O1          0.97655      0.58857      0.50411  1.0000
  O1          0.61893      0.03787      0.17525  1.0000
  O1          0.58336      0.17141      0.25519  1.0000
  O1          0.83581      0.41545      0.58355  1.0000
  O3          0.59342      0.42971      0.92225  1.0000
  O1          0.42110      0.83483      0.75890  1.0000
  O1          0.17321      0.59576      0.08760  1.0000
  O1          0.41779      0.58273      0.42270  1.0000
  F           0.47611      0.93353      0.24205  1.0000
  F           0.07471      0.55146      0.57151  1.0000
  F           0.46560      0.53862      0.90703  1.0000
  F           0.52712      0.07084      0.74262  1.0000
  F           0.93547      0.46579      0.07463  1.0000
  F           0.55031      0.47813      0.40913  1.0000
