data_cif

_audit_creation_method             'generated by GULP'

_symmetry_space_group_name_H-M     'P 1'
_symmetry_Int_Tables_number        1
_symmetry_cell_setting             triclinic

_cell_length_a                       12.2277
_cell_length_b                       12.2499
_cell_length_c                       30.0760
_cell_angle_alpha                   90.7782
_cell_angle_beta                    89.6213
_cell_angle_gamma                  119.8688

loop_
_atom_site_label
_atom_site_fract_x
_atom_site_fract_y
_atom_site_fract_z
_atom_site_occupancy
  Ge          0.69960      0.37570      0.03389  1.0000
  Ge          0.62744      0.29281      0.36478  1.0000
  Ge          0.71496      0.32121      0.69926  1.0000
  Ge          0.31146      0.60950      0.52503  1.0000
  Ge          0.39183      0.70242      0.86008  1.0000
  Ge          0.31759      0.68566      0.19097  1.0000
  Ge          0.37291      0.67363      0.29523  1.0000
  Ge          0.34339      0.63570      0.95977  1.0000
  Ge          0.32943      0.67837      0.63009  1.0000
  Ge          0.64475      0.30780      0.80373  1.0000
  Ge          0.68428      0.36979      0.46903  1.0000
  Ge          0.70989      0.32138      0.13774  1.0000
  Ge          0.52211      0.42591      0.97175  1.0000
  Ge          0.57486      0.06634      0.30021  1.0000
  Ge          0.93933      0.49013      0.63455  1.0000
  Ge          0.48286      0.55913      0.45775  1.0000
  Ge          0.44936      0.92024      0.79212  1.0000
  Ge          0.09737      0.51428      0.12364  1.0000
  Ge          0.42018      0.50029      0.35804  1.0000
  Ge          0.11791      0.57627      0.02259  1.0000
  Ge          0.50278      0.90480      0.69229  1.0000
  Ge          0.58729      0.48011      0.86731  1.0000
  Ge          0.90410      0.41587      0.53539  1.0000
  Ge          0.53491      0.10075      0.20151  1.0000
  Ge          0.29696      0.40691      0.85380  1.0000
  Ge          0.61269      0.88692      0.18504  1.0000
  Si          0.11456      0.70192      0.51982  1.0000
  Ge          0.71540      0.58260      0.34943  1.0000
  Ge          0.42390      0.11985      0.68398  1.0000
  Ge          0.89696      0.28361      0.01760  1.0000
  Ge          0.39691      0.28573      0.48312  1.0000
  Ge          0.91521      0.60850      0.14989  1.0000
  Ge          0.72635      0.10287      0.81786  1.0000
  Ge          0.61470      0.72233      0.98550  1.0000
  Ge          0.12573      0.39700      0.65212  1.0000
  Ge          0.29484      0.87813      0.31783  1.0000
  Si          0.24015      0.34928      0.95703  1.0000
  Si          0.66534      0.87943      0.28724  1.0000
  Si          0.12523      0.76526      0.62152  1.0000
  Si          0.76286      0.65552      0.45184  1.0000
  Si          0.35610      0.10612      0.78657  1.0000
  Si          0.91347      0.23602      0.12015  1.0000
  Si          0.34221      0.22475      0.38032  1.0000
  Si          0.91735      0.65852      0.04687  1.0000
  Si          0.78035      0.10238      0.71459  1.0000
  Si          0.67220      0.76329      0.88265  1.0000
  Si          0.09923      0.32876      0.54922  1.0000
  Si          0.25446      0.90267      0.21540  1.0000
  Si          0.97462      0.11066      0.96918  1.0000
  Si          0.89119      0.83267      0.30265  1.0000
  Si          0.17244      0.04012      0.63507  1.0000
  Si          0.03633      0.87203      0.47018  1.0000
  Si          0.13008      0.15323      0.80268  1.0000
  Si          0.86515      0.96407      0.13565  1.0000
  Si          0.11954      0.94908      0.36954  1.0000
  Si          0.86977      0.88388      0.03552  1.0000
  Si          0.05418      0.15145      0.70203  1.0000
  Si          0.90087      0.03029      0.86867  1.0000
  Si          0.15255      0.10789      0.53529  1.0000
  Si          0.98167      0.85353      0.20261  1.0000
  O2          0.95378      0.99927      0.00234  1.0000
  O2          0.99888      0.91673      0.33879  1.0000
  O2          0.08502      0.06311      0.67003  1.0000
  O2          0.06707      0.98700      0.50384  1.0000
  O2          0.01668      0.06129      0.83535  1.0000
  O2          0.94897      0.93921      0.17108  1.0000
  O1          0.33660      0.53526      0.32111  1.0000
  O1          0.46841      0.78297      0.65603  1.0000
  O1          0.23534      0.66756      0.98845  1.0000
  O1          0.67723      0.43776      0.83626  1.0000
  O1          0.57791      0.22865      0.16839  1.0000
  O1          0.78031      0.33522      0.50002  1.0000
  O1          0.56871      0.34019      0.00347  1.0000
  O1          0.80731      0.44811      0.66984  1.0000
  O1          0.66335      0.19907      0.33565  1.0000
  O1          0.42744      0.64683      0.48906  1.0000
  O1          0.23830      0.56835      0.15554  1.0000
  O1          0.35911      0.78124      0.82295  1.0000
  O2          0.11740      0.22441      0.97634  1.0000
  O2          0.77963      0.86567      0.30849  1.0000
  O2          0.13827      0.89568      0.64007  1.0000
  O2          0.88703      0.77818      0.47213  1.0000
  O2          0.23848      0.11604      0.80739  1.0000
  O2          0.90715      0.11096      0.14055  1.0000
  O2          0.22317      0.09505      0.36100  1.0000
  O2          0.91124      0.77929      0.02701  1.0000
  O2          0.90812      0.11126      0.69384  1.0000
  O2          0.79699      0.88318      0.86146  1.0000
  O2          0.10188      0.20605      0.52850  1.0000
  O2          0.12970      0.90059      0.19537  1.0000
  O2          0.95249      0.87088      0.25376  1.0000
  O2          0.13671      0.06274      0.58602  1.0000
  O2          0.95331      0.05711      0.91888  1.0000
  O2          0.07616      0.12711      0.75267  1.0000
  O2          0.89661      0.93415      0.08628  1.0000
  O2          0.07810      0.92679      0.42098  1.0000
  O3          0.88469      0.16732      0.97984  1.0000
  O3          0.82884      0.68531      0.31131  1.0000
  O3          0.31918      0.12566      0.64539  1.0000
  O2          0.10900      0.79764      0.48385  1.0000
  O3          0.18827      0.29791      0.81547  1.0000
  O3          0.71830      0.88345      0.14580  1.0000
  O3          0.17861      0.86391      0.35569  1.0000
  O3          0.72383      0.82555      0.02441  1.0000
  O3          0.14001      0.29566      0.68953  1.0000
  O3          0.83730      0.11226      0.85667  1.0000
  O3          0.29680      0.17405      0.52170  1.0000
  O3          0.90189      0.70939      0.18861  1.0000
  O1          0.29873      0.63358      0.24526  1.0000
  O1          0.36840      0.64917      0.57876  1.0000
  O1          0.35132      0.72153      0.91301  1.0000
  O1          0.72261      0.36199      0.75493  1.0000
  O1          0.65630      0.34630      0.08851  1.0000
  O1          0.65853      0.28838      0.42041  1.0000
  O3          0.36058      0.35223      0.97998  1.0000
  O3          0.66814      0.99674      0.31197  1.0000
  O3          0.00541      0.65404      0.64504  1.0000
  O3          0.64389      0.65900      0.47215  1.0000
  O3          0.35130      0.98450      0.80666  1.0000
  O3          0.03491      0.35486      0.14022  1.0000
  O3          0.32028      0.33904      0.36769  1.0000
  O3          0.04959      0.67296      0.03494  1.0000
  O3          0.66477      0.96653      0.70212  1.0000
  O3          0.68634      0.64058      0.87661  1.0000
  O3          0.96265      0.31172      0.54074  1.0000
  O3          0.37217      0.04062      0.20807  1.0000
  O1          0.75225      0.27446      0.01786  1.0000
  O1          0.72542      0.44923      0.34968  1.0000
  O1          0.55782      0.26250      0.68404  1.0000
  O3          0.24568      0.70600      0.51412  1.0000
  O1          0.29080      0.54049      0.84841  1.0000
  O1          0.47838      0.74653      0.18039  1.0000
  O1          0.31145      0.74898      0.32667  1.0000
  O1          0.47449      0.71441      0.99584  1.0000
  O1          0.25912      0.54145      0.66018  1.0000
  O1          0.70581      0.22866      0.83153  1.0000
  O1          0.54372      0.31112      0.49730  1.0000
  O1          0.79231      0.46337      0.16494  1.0000
  O3          0.80727      0.53221      0.02352  1.0000
  O3          0.47049      0.25253      0.35635  1.0000
  O3          0.75286      0.20280      0.69121  1.0000
  O3          0.19477      0.45211      0.52231  1.0000
  O3          0.55038      0.73933      0.85581  1.0000
  O3          0.28430      0.80831      0.18763  1.0000
  O3          0.53754      0.74869      0.29627  1.0000
  O3          0.23066      0.46976      0.97106  1.0000
  O3          0.25345      0.76722      0.63425  1.0000
  O3          0.48091      0.23443      0.80175  1.0000
  O3          0.76995      0.53337      0.46674  1.0000
  O3          0.78400      0.23148      0.13479  1.0000
  O3          0.24067      0.32923      0.90371  1.0000
  O3          0.69194      0.90497      0.23469  1.0000
  O2          0.10456      0.75829      0.56786  1.0000
  O3          0.76847      0.66929      0.39852  1.0000
  O3          0.34007      0.09405      0.73316  1.0000
  O3          0.92501      0.22948      0.06667  1.0000
  O3          0.34177      0.20391      0.43295  1.0000
  O3          0.89088      0.66084      0.09939  1.0000
  O3          0.80494      0.12528      0.76726  1.0000
  O3          0.67394      0.79628      0.93463  1.0000
  O3          0.13248      0.33128      0.60087  1.0000
  O3          0.22235      0.86711      0.26686  1.0000
  O1          0.60457      0.57805      0.99167  1.0000
  O1          0.43148      0.01316      0.32936  1.0000
  O1          0.99285      0.40231      0.66496  1.0000
  O1          0.39170      0.42120      0.48928  1.0000
  O1          0.58832      0.96637      0.82381  1.0000
  O1          0.05455      0.61136      0.15526  1.0000
  O1          0.56534      0.54225      0.33453  1.0000
  O1          0.00202      0.43130      0.00123  1.0000
  O1          0.46187      0.00797      0.66888  1.0000
  O1          0.44798      0.44097      0.84133  1.0000
  O3          0.00272      0.56119      0.51084  1.0000
  O1          0.58126      0.00508      0.17430  1.0000
  O1          0.60609      0.15518      0.25198  1.0000
  O1          0.84900      0.42939      0.58609  1.0000
  O1          0.55664      0.40717      0.91794  1.0000
  O1          0.42446      0.84290      0.74092  1.0000
  O1          0.17285      0.55728      0.07277  1.0000
  O1          0.43167      0.58070      0.40651  1.0000
  F           0.47235      0.91594      0.26032  1.0000
  F           0.08896      0.53267      0.59676  1.0000
  F           0.43650      0.57003      0.92760  1.0000
  F           0.55563      0.07943      0.75931  1.0000
  F           0.93508      0.45727      0.09232  1.0000
  F           0.53964      0.45302      0.42465  1.0000
