data_cif

_audit_creation_method             'generated by GULP'

_symmetry_space_group_name_H-M     'P 1'
_symmetry_Int_Tables_number        1
_symmetry_cell_setting             triclinic

_cell_length_a                       12.2357
_cell_length_b                       12.2507
_cell_length_c                       30.0243
_cell_angle_alpha                   91.2118
_cell_angle_beta                    89.4404
_cell_angle_gamma                  119.9275

loop_
_atom_site_label
_atom_site_fract_x
_atom_site_fract_y
_atom_site_fract_z
_atom_site_occupancy
  Ge          0.69960      0.37570      0.03389  1.0000
  Ge          0.62770      0.33345      0.36556  1.0000
  Ge          0.70640      0.33716      0.70179  1.0000
  Ge          0.33588      0.63864      0.54463  1.0000
  Ge          0.36916      0.70570      0.87920  1.0000
  Si          0.32246      0.69272      0.21076  1.0000
  Ge          0.39261      0.71394      0.31288  1.0000
  Ge          0.33467      0.62502      0.97664  1.0000
  Ge          0.30880      0.69400      0.64882  1.0000
  Ge          0.63968      0.32115      0.80229  1.0000
  Ge          0.69721      0.38115      0.47033  1.0000
  Ge          0.69471      0.32481      0.13423  1.0000
  Ge          0.52816      0.42492      0.96818  1.0000
  Ge          0.58462      0.11308      0.29764  1.0000
  Ge          0.92141      0.49560      0.63298  1.0000
  Ge          0.50590      0.58190      0.47901  1.0000
  Ge          0.42695      0.93336      0.81680  1.0000
  Ge          0.09792      0.51799      0.14900  1.0000
  Ge          0.43111      0.54194      0.37995  1.0000
  Ge          0.11037      0.56976      0.04305  1.0000
  Si          0.47964      0.91342      0.71413  1.0000
  Ge          0.57360      0.48929      0.86276  1.0000
  Ge          0.91958      0.42973      0.53291  1.0000
  Ge          0.52451      0.10551      0.19534  1.0000
  Ge          0.28214      0.41815      0.86100  1.0000
  Ge          0.60324      0.88943      0.18980  1.0000
  Ge          0.13272      0.72364      0.52592  1.0000
  Si          0.71875      0.62157      0.36255  1.0000
  Ge          0.41302      0.12862      0.69800  1.0000
  Si          0.89446      0.28341      0.02852  1.0000
  Ge          0.41592      0.30333      0.49477  1.0000
  Ge          0.88238      0.59642      0.15956  1.0000
  Ge          0.72417      0.13814      0.83154  1.0000
  Ge          0.61317      0.71580      0.99210  1.0000
  Ge          0.10541      0.40543      0.66065  1.0000
  Ge          0.31172      0.92088      0.32530  1.0000
  Si          0.24285      0.34388      0.96360  1.0000
  Ge          0.67999      0.92597      0.29371  1.0000
  Si          0.10466      0.77432      0.62808  1.0000
  Si          0.78185      0.67189      0.46395  1.0000
  Si          0.35121      0.13836      0.80042  1.0000
  Ge          0.89001      0.23194      0.13212  1.0000
  Si          0.34637      0.26149      0.39219  1.0000
  Si          0.90975      0.65743      0.05727  1.0000
  Ge          0.76377      0.11362      0.72636  1.0000
  Si          0.65446      0.77210      0.88952  1.0000
  Si          0.11704      0.35232      0.55744  1.0000
  Si          0.24792      0.90312      0.22280  1.0000
  Si          0.97679      0.11427      0.97842  1.0000
  Si          0.89734      0.86720      0.31257  1.0000
  Si          0.16420      0.04952      0.64469  1.0000
  Si          0.05752      0.89743      0.47786  1.0000
  Si          0.11180      0.16688      0.81206  1.0000
  Si          0.85450      0.95835      0.14439  1.0000
  Si          0.13241      0.98575      0.37853  1.0000
  Si          0.86736      0.88353      0.04377  1.0000
  Si          0.03565      0.15745      0.71081  1.0000
  Si          0.88327      0.04159      0.87866  1.0000
  Si          0.16921      0.12901      0.54455  1.0000
  Si          0.97047      0.84676      0.21153  1.0000
  O2          0.94823      0.99947      0.01062  1.0000
  O2          0.01532      0.94338      0.34536  1.0000
  O2          0.08183      0.08240      0.67839  1.0000
  O2          0.08111      0.00883      0.51285  1.0000
  O2          0.99697      0.07380      0.84390  1.0000
  O2          0.93731      0.92897      0.17863  1.0000
  O1          0.35015      0.58353      0.34442  1.0000
  O3          0.43237      0.78768      0.68500  1.0000
  O1          0.23657      0.65638      0.01226  1.0000
  O1          0.66878      0.46281      0.83014  1.0000
  O1          0.55001      0.21971      0.16005  1.0000
  O1          0.80162      0.34556      0.49511  1.0000
  O1          0.58877      0.34196      0.99386  1.0000
  O1          0.78082      0.44710      0.66366  1.0000
  O1          0.66656      0.26104      0.32692  1.0000
  O1          0.46490      0.67173      0.51578  1.0000
  O3          0.23200      0.56990      0.18241  1.0000
  O1          0.33747      0.80110      0.84721  1.0000
  O2          0.12577      0.21176      0.98137  1.0000
  O3          0.81527      0.93351      0.31590  1.0000
  O2          0.10985      0.90049      0.64834  1.0000
  O2          0.91227      0.78838      0.48284  1.0000
  O2          0.22687      0.13973      0.81944  1.0000
  O3          0.89423      0.10244      0.15287  1.0000
  O2          0.22438      0.13547      0.37182  1.0000
  O2          0.91647      0.78358      0.03677  1.0000
  O3          0.88800      0.09981      0.70288  1.0000
  O2          0.77628      0.89682      0.86896  1.0000
  O2          0.12931      0.23485      0.53657  1.0000
  O2          0.11623      0.88494      0.20277  1.0000
  O2          0.94888      0.87457      0.26243  1.0000
  O2          0.14418      0.08434      0.59525  1.0000
  O2          0.93748      0.05905      0.92849  1.0000
  O2          0.06242      0.13660      0.76150  1.0000
  O2          0.89084      0.93793      0.09415  1.0000
  O2          0.08159      0.95541      0.42886  1.0000
  O2          0.90060      0.18605      0.99189  1.0000
  O2          0.81239      0.72046      0.32575  1.0000
  O3          0.30992      0.12236      0.65674  1.0000
  O3          0.14180      0.83475      0.48758  1.0000
  O3          0.16508      0.31209      0.82403  1.0000
  O3          0.70453      0.87487      0.15116  1.0000
  O3          0.20605      0.91349      0.36645  1.0000
  O3          0.72160      0.81634      0.03199  1.0000
  O3          0.10885      0.30447      0.70027  1.0000
  O3          0.82401      0.12994      0.87117  1.0000
  O3          0.31390      0.18705      0.53190  1.0000
  O3          0.88234      0.70186      0.19977  1.0000
  O3          0.31725      0.65709      0.26211  1.0000
  O1          0.37178      0.67411      0.60066  1.0000
  O1          0.32831      0.71486      0.93291  1.0000
  O1          0.72672      0.39752      0.75518  1.0000
  O1          0.62669      0.33173      0.08421  1.0000
  O1          0.66603      0.31216      0.41881  1.0000
  O3          0.36859      0.34962      0.98208  1.0000
  O1          0.68858      0.06137      0.31323  1.0000
  O3          0.98252      0.65731      0.64769  1.0000
  O3          0.67015      0.67873      0.48894  1.0000
  O3          0.35416      0.02301      0.82414  1.0000
  O1          0.01535      0.35867      0.15781  1.0000
  O3          0.32695      0.37980      0.38516  1.0000
  O3          0.04312      0.66647      0.05225  1.0000
  O3          0.62816      0.96776      0.72119  1.0000
  O3          0.66505      0.65166      0.87679  1.0000
  O3          0.98186      0.33077      0.54305  1.0000
  O3          0.36028      0.03309      0.20675  1.0000
  O3          0.76043      0.27467      0.02271  1.0000
  O3          0.72525      0.49596      0.35699  1.0000
  O1          0.54319      0.27013      0.69171  1.0000
  O1          0.27668      0.73472      0.52803  1.0000
  O1          0.27025      0.55143      0.86104  1.0000
  O3          0.46505      0.74518      0.19374  1.0000
  O1          0.33105      0.79659      0.33944  1.0000
  O1          0.47270      0.70027      0.00883  1.0000
  O1          0.22865      0.55226      0.67510  1.0000
  O1          0.71732      0.27232      0.83982  1.0000
  O1          0.56104      0.31549      0.50166  1.0000
  O1          0.74748      0.45870      0.16922  1.0000
  O3          0.80643      0.53633      0.02962  1.0000
  O3          0.46964      0.29173      0.36386  1.0000
  O1          0.74738      0.21985      0.69666  1.0000
  O3          0.22006      0.48172      0.53592  1.0000
  O3          0.52933      0.76215      0.86866  1.0000
  O2          0.27172      0.79136      0.20362  1.0000
  O1          0.55443      0.78942      0.31333  1.0000
  O3          0.22933      0.45839      0.98362  1.0000
  O3          0.23349      0.78103      0.64417  1.0000
  O3          0.47287      0.26892      0.81328  1.0000
  O3          0.78534      0.54573      0.47453  1.0000
  O1          0.74963      0.21763      0.14710  1.0000
  O3          0.23508      0.33400      0.90984  1.0000
  O1          0.69409      0.92322      0.23671  1.0000
  O3          0.09718      0.77806      0.57455  1.0000
  O2          0.77429      0.68959      0.41061  1.0000
  O3          0.33202      0.11328      0.74713  1.0000
  O3          0.91206      0.23050      0.07476  1.0000
  O3          0.35046      0.23041      0.44353  1.0000
  O3          0.87259      0.65774      0.10882  1.0000
  O1          0.80015      0.14611      0.78165  1.0000
  O3          0.66418      0.79760      0.94265  1.0000
  O3          0.13271      0.34877      0.61044  1.0000
  O3          0.22921      0.89526      0.27580  1.0000
  O1          0.61017      0.57423      0.99167  1.0000
  O1          0.44620      0.06257      0.32982  1.0000
  O1          0.96669      0.40442      0.66530  1.0000
  O1          0.41942      0.44030      0.50878  1.0000
  O1          0.57744      0.00617      0.83755  1.0000
  O1          0.01952      0.59319      0.16783  1.0000
  O3          0.57686      0.59047      0.35438  1.0000
  O3          0.99826      0.42662      0.01929  1.0000
  O3          0.45070      0.01122      0.68881  1.0000
  O1          0.43052      0.46341      0.84255  1.0000
  O1          0.02439      0.57352      0.50998  1.0000
  O1          0.56075      0.99422      0.17357  1.0000
  O1          0.60147      0.17199      0.24488  1.0000
  O1          0.85019      0.44292      0.58098  1.0000
  O1          0.54515      0.41100      0.91275  1.0000
  O3          0.41109      0.88147      0.76191  1.0000
  O1          0.15069      0.54572      0.09542  1.0000
  O1          0.44410      0.61090      0.43102  1.0000
  F           0.48314      0.93698      0.26808  1.0000
  F           0.08485      0.55036      0.60148  1.0000
  F           0.42647      0.57369      0.93497  1.0000
  F           0.57840      0.16302      0.77108  1.0000
  F           0.86128      0.42040      0.10378  1.0000
  F           0.54906      0.47589      0.43937  1.0000
