data_cif

_audit_creation_method             'generated by GULP'

_symmetry_space_group_name_H-M     'P 1'
_symmetry_Int_Tables_number        1
_symmetry_cell_setting             triclinic

_cell_length_a                       12.2789
_cell_length_b                       12.2602
_cell_length_c                       30.0816
_cell_angle_alpha                   89.7879
_cell_angle_beta                    89.7241
_cell_angle_gamma                  119.9644

loop_
_atom_site_label
_atom_site_fract_x
_atom_site_fract_y
_atom_site_fract_z
_atom_site_occupancy
  Ge          0.69960      0.37570      0.03389  1.0000
  Ge          0.64872      0.31636      0.36635  1.0000
  Ge          0.71177      0.33268      0.69810  1.0000
  Ge          0.30408      0.62327      0.52781  1.0000
  Ge          0.38870      0.69899      0.85876  1.0000
  Ge          0.31127      0.67249      0.19294  1.0000
  Ge          0.38438      0.69971      0.29216  1.0000
  Ge          0.33777      0.63738      0.95989  1.0000
  Ge          0.32345      0.69573      0.63083  1.0000
  Ge          0.63531      0.31086      0.80216  1.0000
  Ge          0.67583      0.38349      0.46548  1.0000
  Ge          0.70812      0.31756      0.13739  1.0000
  Ge          0.52394      0.42670      0.97088  1.0000
  Ge          0.59282      0.08896      0.30389  1.0000
  Ge          0.93408      0.50666      0.63236  1.0000
  Ge          0.48464      0.58380      0.46102  1.0000
  Ge          0.44349      0.92151      0.79181  1.0000
  Ge          0.09381      0.50968      0.12439  1.0000
  Ge          0.44696      0.53576      0.35538  1.0000
  Ge          0.11501      0.57912      0.02328  1.0000
  Ge          0.50218      0.91876      0.69193  1.0000
  Ge          0.58149      0.48419      0.86596  1.0000
  Ge          0.88777      0.42695      0.53272  1.0000
  Ge          0.53155      0.08894      0.19932  1.0000
  Si          0.29655      0.40999      0.85119  1.0000
  Ge          0.60652      0.87425      0.18571  1.0000
  Ge          0.10814      0.71830      0.51935  1.0000
  Si          0.73210      0.59751      0.34979  1.0000
  Ge          0.42128      0.13130      0.68329  1.0000
  Ge          0.89643      0.28507      0.01794  1.0000
  Si          0.40146      0.29720      0.48278  1.0000
  Ge          0.91171      0.60304      0.15034  1.0000
  Ge          0.71820      0.10788      0.81694  1.0000
  Ge          0.60878      0.71992      0.98417  1.0000
  Ge          0.11896      0.41332      0.65181  1.0000
  Ge          0.29682      0.88242      0.31890  1.0000
  Ge          0.24069      0.35036      0.95444  1.0000
  Si          0.66888      0.88309      0.28894  1.0000
  Si          0.11910      0.78314      0.62110  1.0000
  Ge          0.77235      0.66727      0.45252  1.0000
  Si          0.34906      0.10651      0.78561  1.0000
  Si          0.90924      0.23106      0.12025  1.0000
  Ge          0.35999      0.24725      0.38014  1.0000
  Si          0.91413      0.65837      0.04743  1.0000
  Si          0.77781      0.11415      0.71401  1.0000
  Si          0.67025      0.76723      0.88133  1.0000
  Si          0.08924      0.34470      0.54940  1.0000
  Si          0.24988      0.89188      0.21587  1.0000
  Si          0.96924      0.11047      0.96833  1.0000
  Si          0.89826      0.84533      0.30171  1.0000
  Si          0.17270      0.05851      0.63457  1.0000
  Si          0.04357      0.90101      0.46805  1.0000
  Si          0.13055      0.16118      0.80197  1.0000
  Si          0.86002      0.95772      0.13527  1.0000
  Si          0.13026      0.97203      0.36735  1.0000
  Si          0.86000      0.87932      0.03495  1.0000
  Si          0.05295      0.16745      0.70163  1.0000
  Si          0.89559      0.03754      0.86742  1.0000
  Si          0.15320      0.13322      0.53451  1.0000
  Si          0.98101      0.84884      0.20137  1.0000
  O2          0.94025      0.99337      0.00047  1.0000
  O2          0.01233      0.92903      0.33445  1.0000
  O2          0.08587      0.08385      0.66870  1.0000
  O2          0.07843      0.01614      0.50165  1.0000
  O2          0.01375      0.07503      0.83447  1.0000
  O2          0.94939      0.93328      0.16824  1.0000
  O1          0.35623      0.56262      0.32176  1.0000
  O1          0.46344      0.79775      0.65540  1.0000
  O1          0.23352      0.67267      0.98929  1.0000
  O1          0.66659      0.44147      0.83329  1.0000
  O1          0.57521      0.22071      0.16800  1.0000
  O1          0.76139      0.33998      0.50152  1.0000
  O1          0.57257      0.34074      0.00216  1.0000
  O1          0.80170      0.46083      0.66846  1.0000
  O1          0.68392      0.22431      0.33324  1.0000
  O1          0.42236      0.65945      0.49096  1.0000
  O1          0.23320      0.56061      0.15595  1.0000
  O1          0.35466      0.77773      0.82153  1.0000
  O3          0.11259      0.21388      0.97548  1.0000
  O2          0.79718      0.89104      0.30738  1.0000
  O2          0.13497      0.91307      0.64104  1.0000
  O3          0.89570      0.80841      0.47225  1.0000
  O2          0.22741      0.10972      0.80574  1.0000
  O2          0.89996      0.10379      0.14059  1.0000
  O3          0.22842      0.11638      0.35759  1.0000
  O2          0.90600      0.77829      0.02750  1.0000
  O2          0.90629      0.12389      0.69415  1.0000
  O2          0.79466      0.88934      0.86025  1.0000
  O2          0.08907      0.21960      0.53038  1.0000
  O2          0.12880      0.89490      0.19500  1.0000
  O2          0.95156      0.87014      0.25164  1.0000
  O2          0.14266      0.08255      0.58460  1.0000
  O2          0.94676      0.06291      0.91746  1.0000
  O2          0.07789      0.14367      0.75218  1.0000
  O2          0.88702      0.93120      0.08510  1.0000
  O2          0.08045      0.95515      0.41795  1.0000
  O3          0.88521      0.17337      0.97933  1.0000
  O2          0.83112      0.69615      0.31273  1.0000
  O3          0.31867      0.14167      0.64510  1.0000
  O3          0.11429      0.82510      0.47941  1.0000
  O2          0.20169      0.30892      0.81445  1.0000
  O3          0.71490      0.87364      0.14740  1.0000
  O3          0.19602      0.88953      0.35844  1.0000
  O3          0.71455      0.81872      0.02418  1.0000
  O3          0.13501      0.31273      0.68951  1.0000
  O3          0.82864      0.11624      0.85570  1.0000
  O2          0.29953      0.21210      0.52104  1.0000
  O3          0.90120      0.70414      0.18892  1.0000
  O1          0.29584      0.61682      0.24632  1.0000
  O1          0.36229      0.65780      0.58074  1.0000
  O1          0.34568      0.71737      0.91127  1.0000
  O1          0.71706      0.36814      0.75401  1.0000
  O1          0.65399      0.34426      0.08854  1.0000
  O1          0.68603      0.30116      0.41962  1.0000
  O1          0.36488      0.34848      0.97976  1.0000
  O3          0.66425      0.99897      0.31218  1.0000
  O3          0.00283      0.66905      0.64577  1.0000
  O1          0.64106      0.66325      0.47438  1.0000
  O3          0.34559      0.98473      0.80606  1.0000
  O3          0.02939      0.34873      0.14059  1.0000
  O1          0.34939      0.37488      0.36753  1.0000
  O3          0.04698      0.67477      0.03560  1.0000
  O3          0.66302      0.97849      0.70107  1.0000
  O3          0.68284      0.64426      0.87452  1.0000
  O3          0.95479      0.32880      0.54139  1.0000
  O3          0.37164      0.02849      0.20857  1.0000
  O1          0.75206      0.27462      0.01884  1.0000
  O3          0.74594      0.47426      0.34956  1.0000
  O1          0.55431      0.27377      0.68399  1.0000
  O1          0.25057      0.72573      0.51600  1.0000
  O3          0.28968      0.53551      0.84766  1.0000
  O1          0.47343      0.73423      0.18128  1.0000
  O1          0.30683      0.75166      0.32905  1.0000
  O1          0.47033      0.71466      0.99467  1.0000
  O1          0.24776      0.55926      0.66166  1.0000
  O1          0.69579      0.23154      0.83077  1.0000
  O3          0.53290      0.31214      0.49708  1.0000
  O1          0.78775      0.45702      0.16524  1.0000
  O3          0.80705      0.53280      0.02371  1.0000
  O1          0.49048      0.25519      0.35618  1.0000
  O3          0.75048      0.21487      0.69038  1.0000
  O3          0.19182      0.46632      0.52175  1.0000
  O3          0.54795      0.74282      0.85492  1.0000
  O3          0.27283      0.79295      0.18949  1.0000
  O3          0.55068      0.75242      0.30345  1.0000
  O1          0.22594      0.47419      0.97088  1.0000
  O3          0.25022      0.78661      0.63014  1.0000
  O3          0.47178      0.23528      0.80075  1.0000
  O1          0.78550      0.54607      0.47396  1.0000
  O3          0.77945      0.22551      0.13471  1.0000
  O3          0.24241      0.33341      0.89710  1.0000
  O3          0.68602      0.90082      0.23551  1.0000
  O3          0.08982      0.78028      0.56856  1.0000
  O3          0.78032      0.67836      0.39480  1.0000
  O3          0.33489      0.09762      0.73232  1.0000
  O3          0.92414      0.22830      0.06686  1.0000
  O3          0.35291      0.21909      0.43708  1.0000
  O3          0.88723      0.65752      0.09996  1.0000
  O3          0.79920      0.13305      0.76672  1.0000
  O3          0.67032      0.79644      0.93334  1.0000
  O3          0.12782      0.35133      0.60073  1.0000
  O3          0.22112      0.86536      0.26817  1.0000
  O1          0.60317      0.57780      0.99095  1.0000
  O1          0.44087      0.01737      0.32416  1.0000
  O1          0.98420      0.41513      0.66248  1.0000
  O3          0.40270      0.42947      0.48050  1.0000
  O1          0.58161      0.96924      0.82327  1.0000
  O1          0.04946      0.60411      0.15570  1.0000
  O3          0.59012      0.55388      0.33656  1.0000
  O1          0.00198      0.43400      0.00175  1.0000
  O1          0.46063      0.02120      0.66808  1.0000
  O3          0.44014      0.44685      0.84121  1.0000
  O1          0.99640      0.56884      0.50738  1.0000
  O1          0.56971      0.98881      0.17298  1.0000
  O1          0.60668      0.13503      0.24943  1.0000
  O1          0.84496      0.45204      0.58443  1.0000
  O1          0.55695      0.41082      0.91656  1.0000
  O1          0.42189      0.85074      0.74014  1.0000
  O1          0.16831      0.55569      0.07327  1.0000
  O1          0.46992      0.60891      0.40637  1.0000
  F           0.44665      0.85386      0.25987  1.0000
  F           0.08568      0.55521      0.59470  1.0000
  F           0.43355      0.56756      0.92896  1.0000
  F           0.55154      0.08594      0.75863  1.0000
  F           0.93023      0.45332      0.09283  1.0000
  F           0.59117      0.44435      0.42478  1.0000
