data_cif

_audit_creation_method             'generated by GULP'

_symmetry_space_group_name_H-M     'P 1'
_symmetry_Int_Tables_number        1
_symmetry_cell_setting             triclinic

_cell_length_a                       12.2625
_cell_length_b                       12.2976
_cell_length_c                       30.1521
_cell_angle_alpha                   90.8575
_cell_angle_beta                    89.7112
_cell_angle_gamma                  120.0568

loop_
_atom_site_label
_atom_site_fract_x
_atom_site_fract_y
_atom_site_fract_z
_atom_site_occupancy
  Ge          0.69960      0.37570      0.03389  1.0000
  Ge          0.64153      0.32742      0.36649  1.0000
  Ge          0.68868      0.32584      0.70118  1.0000
  Ge          0.33691      0.64565      0.53116  1.0000
  Ge          0.37153      0.68553      0.86588  1.0000
  Ge          0.34519      0.71767      0.19824  1.0000
  Ge          0.39288      0.70498      0.30195  1.0000
  Ge          0.32779      0.62677      0.96534  1.0000
  Ge          0.31294      0.69268      0.63141  1.0000
  Ge          0.62367      0.30647      0.80047  1.0000
  Ge          0.70293      0.39843      0.46997  1.0000
  Ge          0.72114      0.33613      0.13345  1.0000
  Ge          0.52534      0.42359      0.96925  1.0000
  Ge          0.59374      0.10497      0.30018  1.0000
  Ge          0.91380      0.49900      0.63727  1.0000
  Ge          0.50465      0.59014      0.46442  1.0000
  Ge          0.42004      0.90518      0.80045  1.0000
  Ge          0.12235      0.53592      0.13381  1.0000
  Ge          0.43608      0.53193      0.36503  1.0000
  Ge          0.10599      0.57774      0.02870  1.0000
  Ge          0.48172      0.91732      0.69519  1.0000
  Ge          0.57317      0.47997      0.86401  1.0000
  Ge          0.93006      0.44897      0.53256  1.0000
  Ge          0.54922      0.12141      0.19872  1.0000
  Si          0.28498      0.40291      0.85420  1.0000
  Si          0.62865      0.91193      0.18707  1.0000
  Si          0.13910      0.73474      0.52082  1.0000
  Ge          0.73071      0.61695      0.35427  1.0000
  Si          0.40653      0.12966      0.68733  1.0000
  Si          0.89499      0.28915      0.02032  1.0000
  Ge          0.41844      0.31562      0.48782  1.0000
  Ge          0.90974      0.61250      0.15288  1.0000
  Ge          0.70994      0.11843      0.82005  1.0000
  Ge          0.60246      0.71410      0.98703  1.0000
  Ge          0.12592      0.42037      0.65399  1.0000
  Ge          0.31631      0.91104      0.31975  1.0000
  Ge          0.23826      0.34294      0.95703  1.0000
  Ge          0.68393      0.91577      0.28907  1.0000
  Ge          0.12053      0.78437      0.62385  1.0000
  Si          0.78401      0.68543      0.45618  1.0000
  Ge          0.34002      0.11152      0.79004  1.0000
  Ge          0.91738      0.24887      0.12302  1.0000
  Si          0.35793      0.25693      0.38537  1.0000
  Si          0.90744      0.66182      0.05061  1.0000
  Si          0.76452      0.11768      0.71768  1.0000
  Si          0.65674      0.76284      0.88461  1.0000
  Si          0.12357      0.36211      0.55120  1.0000
  Si          0.26728      0.92345      0.21758  1.0000
  Si          0.96651      0.11208      0.97141  1.0000
  Si          0.90996      0.86395      0.30507  1.0000
  Si          0.15892      0.05558      0.63836  1.0000
  Si          0.05883      0.90211      0.47240  1.0000
  Si          0.10965      0.15396      0.80472  1.0000
  Si          0.87395      0.97743      0.13778  1.0000
  Si          0.14084      0.98009      0.37214  1.0000
  Si          0.85452      0.88136      0.03781  1.0000
  Si          0.03799      0.17018      0.70453  1.0000
  Si          0.87627      0.03517      0.87114  1.0000
  Si          0.17161      0.13831      0.53795  1.0000
  Si          0.99130      0.86398      0.20473  1.0000
  O2          0.92727      0.99414      0.00312  1.0000
  O2          0.02470      0.94497      0.33901  1.0000
  O2          0.07814      0.09488      0.67003  1.0000
  O2          0.09110      0.01944      0.50502  1.0000
  O2          0.99016      0.07517      0.83633  1.0000
  O2          0.94977      0.93671      0.17059  1.0000
  O1          0.35096      0.56757      0.32917  1.0000
  O1          0.45208      0.79732      0.66179  1.0000
  O1          0.22552      0.66454      0.99524  1.0000
  O1          0.66100      0.44533      0.83118  1.0000
  O1          0.58381      0.23889      0.16423  1.0000
  O1          0.80515      0.36577      0.49822  1.0000
  O1          0.58131      0.33996      0.99709  1.0000
  O1          0.77274      0.44331      0.66475  1.0000
  O1          0.67944      0.24306      0.33337  1.0000
  O1          0.45296      0.67988      0.49543  1.0000
  O1          0.26461      0.59745      0.16176  1.0000
  O1          0.33683      0.76475      0.82800  1.0000
  O3          0.11403      0.20095      0.97588  1.0000
  O3          0.81290      0.91277      0.31127  1.0000
  O3          0.10155      0.90886      0.64264  1.0000
  O2          0.91023      0.80571      0.47648  1.0000
  O3          0.19692      0.09379      0.80863  1.0000
  O3          0.93675      0.12538      0.14143  1.0000
  O2          0.23928      0.12816      0.36564  1.0000
  O2          0.90453      0.78294      0.03018  1.0000
  O2          0.88960      0.12044      0.69702  1.0000
  O2          0.77923      0.88620      0.86407  1.0000
  O2          0.12462      0.23903      0.53044  1.0000
  O2          0.14074      0.91807      0.19780  1.0000
  O2          0.96272      0.88964      0.25473  1.0000
  O2          0.14594      0.08989      0.58803  1.0000
  O2          0.93117      0.06276      0.92083  1.0000
  O2          0.06185      0.14191      0.75425  1.0000
  O2          0.88531      0.93700      0.08761  1.0000
  O2          0.09216      0.95286      0.42258  1.0000
  O2          0.89687      0.19144      0.98346  1.0000
  O3          0.83914      0.71678      0.31495  1.0000
  O2          0.30798      0.12659      0.65037  1.0000
  O2          0.13524      0.83080      0.48442  1.0000
  O2          0.18957      0.30247      0.81719  1.0000
  O2          0.72501      0.91304      0.14927  1.0000
  O3          0.20581      0.90068      0.35919  1.0000
  O3          0.70784      0.81360      0.02785  1.0000
  O3          0.11827      0.31592      0.69432  1.0000
  O3          0.80728      0.11198      0.86097  1.0000
  O3          0.31732      0.20488      0.52639  1.0000
  O3          0.91549      0.71803      0.19365  1.0000
  O1          0.32108      0.66041      0.25097  1.0000
  O1          0.39253      0.68819      0.58427  1.0000
  O1          0.32918      0.70720      0.91770  1.0000
  O1          0.70674      0.38757      0.75328  1.0000
  O1          0.63961      0.33546      0.08590  1.0000
  O1          0.67233      0.31569      0.42155  1.0000
  O1          0.36666      0.34685      0.98091  1.0000
  O1          0.69026      0.04374      0.31376  1.0000
  O1          0.99391      0.65792      0.64781  1.0000
  O3          0.66663      0.68724      0.47824  1.0000
  O1          0.34167      0.98542      0.81272  1.0000
  O1          0.04457      0.37861      0.14608  1.0000
  O3          0.33524      0.37122      0.37447  1.0000
  O3          0.04041      0.67377      0.04086  1.0000
  O3          0.64370      0.98504      0.70778  1.0000
  O3          0.66914      0.64187      0.87564  1.0000
  O3          0.98793      0.34784      0.54214  1.0000
  O3          0.38565      0.05744      0.20857  1.0000
  O3          0.75793      0.27479      0.02018  1.0000
  O1          0.74174      0.48506      0.35441  1.0000
  O3          0.52964      0.26630      0.68703  1.0000
  O3          0.27297      0.74426      0.51916  1.0000
  O3          0.27097      0.52537      0.85309  1.0000
  O3          0.50433      0.77533      0.18713  1.0000
  O1          0.33150      0.78291      0.33142  1.0000
  O1          0.46224      0.70415      0.99960  1.0000
  O1          0.25643      0.56045      0.66598  1.0000
  O1          0.69897      0.24752      0.83386  1.0000
  O1          0.56576      0.33888      0.50009  1.0000
  O1          0.78173      0.47316      0.16664  1.0000
  O3          0.80015      0.53640      0.02661  1.0000
  O3          0.48448      0.28694      0.35980  1.0000
  O3          0.74856      0.22485      0.69383  1.0000
  O3          0.22311      0.48579      0.52617  1.0000
  O3          0.53293      0.74440      0.85981  1.0000
  O3          0.29026      0.82132      0.19137  1.0000
  O1          0.55560      0.77525      0.30325  1.0000
  O1          0.21932      0.46364      0.97531  1.0000
  O1          0.25906      0.80249      0.64228  1.0000
  O1          0.45969      0.25018      0.80973  1.0000
  O3          0.79127      0.56197      0.46869  1.0000
  O1          0.77940      0.23098      0.14245  1.0000
  O3          0.23717      0.32603      0.89953  1.0000
  O3          0.70783      0.93815      0.23215  1.0000
  O3          0.10923      0.78438      0.56634  1.0000
  O3          0.78535      0.70369      0.40322  1.0000
  O3          0.32681      0.09903      0.73246  1.0000
  O3          0.92871      0.24461      0.06551  1.0000
  O3          0.36059      0.23460      0.43761  1.0000
  O3          0.88461      0.66668      0.10306  1.0000
  O3          0.79087      0.14234      0.77020  1.0000
  O3          0.65892      0.79179      0.93697  1.0000
  O3          0.14699      0.36149      0.60353  1.0000
  O3          0.23905      0.89226      0.26937  1.0000
  O1          0.60186      0.57470      0.99063  1.0000
  O1          0.45053      0.05089      0.32880  1.0000
  O1          0.98729      0.42269      0.65829  1.0000
  O1          0.41608      0.45161      0.49529  1.0000
  O1          0.57011      0.97908      0.82252  1.0000
  O1          0.05036      0.61407      0.15597  1.0000
  O1          0.57978      0.57529      0.34025  1.0000
  O3          0.98975      0.43261      0.00771  1.0000
  O3          0.45413      0.03346      0.67458  1.0000
  O3          0.42936      0.45085      0.84218  1.0000
  O3          0.03612      0.59080      0.50893  1.0000
  O3          0.58272      0.00902      0.17602  1.0000
  O1          0.62030      0.17702      0.24935  1.0000
  O1          0.87523      0.47198      0.58204  1.0000
  O1          0.54775      0.40669      0.91436  1.0000
  O1          0.40555      0.86759      0.74544  1.0000
  O1          0.15880      0.55592      0.07894  1.0000
  O1          0.45215      0.61228      0.41365  1.0000
  F           0.48782      0.93392      0.26533  1.0000
  F           0.15328      0.59716      0.59841  1.0000
  F           0.42254      0.56370      0.93092  1.0000
  F           0.56248      0.14999      0.76436  1.0000
  F           0.87889      0.43167      0.09747  1.0000
  F           0.55944      0.48331      0.42943  1.0000
