data_cif

_audit_creation_method             'generated by GULP'

_symmetry_space_group_name_H-M     'P 1'
_symmetry_Int_Tables_number        1
_symmetry_cell_setting             triclinic

_cell_length_a                       12.2979
_cell_length_b                       12.2832
_cell_length_c                       30.0899
_cell_angle_alpha                   90.4096
_cell_angle_beta                    90.4270
_cell_angle_gamma                  120.3001

loop_
_atom_site_label
_atom_site_fract_x
_atom_site_fract_y
_atom_site_fract_z
_atom_site_occupancy
  Ge          0.69960      0.37570      0.03389  1.0000
  Ge          0.63309      0.31225      0.36433  1.0000
  Ge          0.67630      0.30086      0.70431  1.0000
  Ge          0.29970      0.62422      0.52453  1.0000
  Ge          0.38506      0.69036      0.85896  1.0000
  Ge          0.33373      0.70999      0.19691  1.0000
  Ge          0.37264      0.66226      0.29503  1.0000
  Ge          0.32239      0.63709      0.96246  1.0000
  Ge          0.31111      0.68274      0.62963  1.0000
  Ge          0.63174      0.33114      0.80356  1.0000
  Ge          0.69433      0.38644      0.46827  1.0000
  Ge          0.69438      0.32200      0.13397  1.0000
  Ge          0.53472      0.43447      0.97208  1.0000
  Ge          0.57710      0.08092      0.30332  1.0000
  Ge          0.89376      0.46478      0.63882  1.0000
  Ge          0.47266      0.58026      0.45970  1.0000
  Ge          0.43367      0.91462      0.79666  1.0000
  Ge          0.10519      0.54093      0.13185  1.0000
  Ge          0.42934      0.49714      0.36083  1.0000
  Ge          0.09854      0.58868      0.02613  1.0000
  Ge          0.49183      0.91093      0.69222  1.0000
  Ge          0.57932      0.49886      0.87117  1.0000
  Ge          0.91205      0.42848      0.53750  1.0000
  Ge          0.52364      0.09966      0.19897  1.0000
  Ge          0.30310      0.40427      0.84542  1.0000
  Ge          0.60907      0.89477      0.17781  1.0000
  Si          0.09469      0.70047      0.51064  1.0000
  Ge          0.70872      0.59248      0.34148  1.0000
  Ge          0.40475      0.11765      0.67775  1.0000
  Ge          0.88938      0.29367      0.01142  1.0000
  Ge          0.39959      0.29081      0.47560  1.0000
  Si          0.88836      0.60879      0.14317  1.0000
  Ge          0.72485      0.12985      0.81047  1.0000
  Ge          0.61058      0.72854      0.97800  1.0000
  Si          0.11509      0.40015      0.64530  1.0000
  Ge          0.28500      0.86523      0.30976  1.0000
  Si          0.25394      0.35366      0.94817  1.0000
  Si          0.65753      0.88332      0.28063  1.0000
  Ge          0.09328      0.75154      0.61393  1.0000
  Si          0.75298      0.66339      0.44430  1.0000
  Si          0.34977      0.11149      0.78054  1.0000
  Si          0.90638      0.25286      0.11416  1.0000
  Si          0.34079      0.22141      0.37375  1.0000
  Ge          0.89032      0.66420      0.03994  1.0000
  Si          0.77478      0.11568      0.70729  1.0000
  Si          0.67318      0.77762      0.87566  1.0000
  Ge          0.09543      0.33254      0.54277  1.0000
  Si          0.23888      0.89618      0.20722  1.0000
  Si          0.97969      0.13243      0.96048  1.0000
  Si          0.88463      0.84051      0.29332  1.0000
  Si          0.15041      0.03290      0.62703  1.0000
  Si          0.02896      0.87526      0.45957  1.0000
  Si          0.12501      0.15620      0.79377  1.0000
  Si          0.86325      0.98366      0.12805  1.0000
  Si          0.11621      0.94589      0.35941  1.0000
  Si          0.86052      0.90498      0.02732  1.0000
  Si          0.04242      0.15690      0.69346  1.0000
  Si          0.89744      0.05006      0.86014  1.0000
  Si          0.15213      0.11073      0.52618  1.0000
  Si          0.97162      0.85834      0.19322  1.0000
  O2          0.94697      0.01998      0.99486  1.0000
  O2          0.00070      0.92340      0.32723  1.0000
  O2          0.07420      0.07612      0.65937  1.0000
  O2          0.07274      0.99371      0.49242  1.0000
  O2          0.00848      0.07302      0.82632  1.0000
  O2          0.94211      0.94685      0.16208  1.0000
  O1          0.33859      0.53838      0.32638  1.0000
  O1          0.44255      0.77444      0.66132  1.0000
  O1          0.23231      0.67309      0.99468  1.0000
  O1          0.66695      0.44593      0.84020  1.0000
  O1          0.58020      0.24118      0.17218  1.0000
  O1          0.77245      0.34976      0.50403  1.0000
  O1          0.55927      0.33973      0.00520  1.0000
  O1          0.78287      0.43801      0.67544  1.0000
  O1          0.66568      0.20713      0.33743  1.0000
  O1          0.42960      0.66732      0.49236  1.0000
  O1          0.22997      0.57723      0.16325  1.0000
  O1          0.34733      0.78470      0.82816  1.0000
  O2          0.12689      0.23430      0.96820  1.0000
  O2          0.77906      0.88028      0.30150  1.0000
  O3          0.09692      0.88664      0.63490  1.0000
  O2          0.87836      0.78862      0.46382  1.0000
  O2          0.22593      0.10968      0.80079  1.0000
  O2          0.91097      0.13209      0.13503  1.0000
  O2          0.22732      0.08986      0.35330  1.0000
  O3          0.89870      0.80034      0.01955  1.0000
  O2          0.89419      0.10648      0.68872  1.0000
  O2          0.79056      0.90352      0.85501  1.0000
  O3          0.09731      0.20281      0.52048  1.0000
  O2          0.11979      0.90859      0.18949  1.0000
  O2          0.93595      0.87193      0.24340  1.0000
  O2          0.12827      0.05773      0.57619  1.0000
  O2          0.95417      0.07886      0.91013  1.0000
  O2          0.07559      0.13422      0.74305  1.0000
  O2          0.88967      0.95555      0.07822  1.0000
  O2          0.06766      0.92413      0.40979  1.0000
  O3          0.89529      0.19335      0.97119  1.0000
  O3          0.82242      0.69421      0.30367  1.0000
  O3          0.29769      0.11127      0.63813  1.0000
  O2          0.09609      0.79642      0.47306  1.0000
  O3          0.19049      0.30149      0.80654  1.0000
  O3          0.71705      0.90357      0.13850  1.0000
  O3          0.17226      0.85788      0.34719  1.0000
  O3          0.71304      0.84197      0.01671  1.0000
  O2          0.11971      0.30640      0.68295  1.0000
  O3          0.83539      0.13310      0.84868  1.0000
  O3          0.29895      0.18594      0.51575  1.0000
  O2          0.89286      0.71067      0.17958  1.0000
  O1          0.33302      0.61778      0.24059  1.0000
  O1          0.35487      0.69791      0.57499  1.0000
  O1          0.30630      0.66627      0.90786  1.0000
  O1          0.67081      0.38435      0.75037  1.0000
  O1          0.62612      0.29676      0.08268  1.0000
  O1          0.71100      0.34937      0.41386  1.0000
  O3          0.37064      0.33790      0.95976  1.0000
  O3          0.67386      0.01880      0.29219  1.0000
  O1          0.95506      0.62708      0.62762  1.0000
  O3          0.63530      0.68220      0.45302  1.0000
  O3          0.33429      0.97473      0.78760  1.0000
  O3          0.03825      0.37737      0.12146  1.0000
  O3          0.33597      0.33303      0.34897  1.0000
  O1          0.01585      0.66413      0.01563  1.0000
  O3          0.65300      0.99739      0.68418  1.0000
  O3          0.67453      0.65904      0.85493  1.0000
  O1          0.96459      0.32548      0.52108  1.0000
  O3          0.36262      0.01648      0.18759  1.0000
  O1          0.75548      0.29737      0.99993  1.0000
  O1          0.69334      0.44644      0.33285  1.0000
  O1          0.54564      0.24704      0.66753  1.0000
  O3          0.21057      0.67965      0.49847  1.0000
  O1          0.32441      0.54951      0.83087  1.0000
  O1          0.46768      0.76872      0.16291  1.0000
  O1          0.27496      0.72303      0.31039  1.0000
  O1          0.47706      0.73904      0.97722  1.0000
  O3          0.25204      0.52554      0.64372  1.0000
  O1          0.73212      0.27007      0.81527  1.0000
  O1          0.53434      0.28639      0.47877  1.0000
  O3          0.75404      0.48258      0.14665  1.0000
  O1          0.75180      0.53898      0.02284  1.0000
  O3          0.46900      0.21973      0.36421  1.0000
  O3          0.78635      0.24511      0.69282  1.0000
  O1          0.23113      0.46262      0.52492  1.0000
  O3          0.54862      0.78277      0.86161  1.0000
  O3          0.22552      0.76822      0.18849  1.0000
  O3          0.53206      0.77885      0.30341  1.0000
  O3          0.27321      0.48022      0.97207  1.0000
  O1          0.21208      0.73944      0.63979  1.0000
  O3          0.47253      0.21092      0.80731  1.0000
  O3          0.72781      0.54189      0.47171  1.0000
  O3          0.79980      0.26737      0.13968  1.0000
  O3          0.22553      0.35148      0.89567  1.0000
  O3          0.66357      0.86728      0.22778  1.0000
  O3          0.12035      0.77609      0.55739  1.0000
  O3          0.78148      0.65743      0.39264  1.0000
  O3          0.34699      0.13645      0.72834  1.0000
  O3          0.87484      0.21952      0.06206  1.0000
  O3          0.31694      0.22591      0.42628  1.0000
  O3          0.90913      0.68283      0.09742  1.0000
  O3          0.77618      0.10078      0.76066  1.0000
  O3          0.69323      0.78289      0.92900  1.0000
  O3          0.08714      0.31794      0.60037  1.0000
  O3          0.23590      0.90200      0.26082  1.0000
  O1          0.56770      0.58020      0.99414  1.0000
  O1          0.43559      0.97540      0.32622  1.0000
  O3          0.01652      0.44229      0.65843  1.0000
  O1          0.42989      0.44043      0.48677  1.0000
  O1          0.57354      0.01546      0.82285  1.0000
  O3          0.99040      0.56824      0.15410  1.0000
  O1          0.56995      0.58545      0.33057  1.0000
  O1          0.02550      0.43626      0.00575  1.0000
  O1          0.41081      0.98088      0.67197  1.0000
  O1          0.43940      0.40294      0.83982  1.0000
  O3          0.96270      0.57239      0.50751  1.0000
  O1          0.60450      0.03231      0.17631  1.0000
  O1          0.55127      0.13604      0.25423  1.0000
  O1          0.83558      0.39319      0.58808  1.0000
  O1          0.61014      0.45622      0.92225  1.0000
  O1          0.45935      0.86500      0.74628  1.0000
  O1          0.14705      0.60964      0.08026  1.0000
  O1          0.40002      0.55756      0.40929  1.0000
  F           0.42843      0.85852      0.23473  1.0000
  F           0.07450      0.52691      0.56999  1.0000
  F           0.47293      0.55628      0.90305  1.0000
  F           0.58242      0.14592      0.73651  1.0000
  F           0.86137      0.44538      0.06686  1.0000
  F           0.53458      0.45381      0.39975  1.0000
