data_cif

_audit_creation_method             'generated by GULP'

_symmetry_space_group_name_H-M     'P 1'
_symmetry_Int_Tables_number        1
_symmetry_cell_setting             triclinic

_cell_length_a                       12.2782
_cell_length_b                       12.2836
_cell_length_c                       30.1398
_cell_angle_alpha                   89.5417
_cell_angle_beta                    90.5953
_cell_angle_gamma                  120.0354

loop_
_atom_site_label
_atom_site_fract_x
_atom_site_fract_y
_atom_site_fract_z
_atom_site_occupancy
  Ge          0.69960      0.37570      0.03389  1.0000
  Ge          0.62765      0.31285      0.36314  1.0000
  Ge          0.67924      0.29382      0.70000  1.0000
  Ge          0.29367      0.61370      0.52365  1.0000
  Ge          0.38515      0.66894      0.86185  1.0000
  Ge          0.31522      0.69330      0.19011  1.0000
  Ge          0.37290      0.68069      0.29402  1.0000
  Ge          0.31516      0.63962      0.96035  1.0000
  Ge          0.29941      0.67191      0.62738  1.0000
  Ge          0.62654      0.29706      0.79963  1.0000
  Ge          0.67440      0.37742      0.46736  1.0000
  Ge          0.67197      0.29900      0.13271  1.0000
  Ge          0.53348      0.43747      0.97104  1.0000
  Ge          0.57725      0.09286      0.30001  1.0000
  Ge          0.89563      0.47132      0.63620  1.0000
  Ge          0.47056      0.57513      0.45908  1.0000
  Ge          0.43014      0.88788      0.79654  1.0000
  Ge          0.08797      0.51897      0.12743  1.0000
  Ge          0.42381      0.50775      0.35912  1.0000
  Ge          0.08898      0.58397      0.02304  1.0000
  Ge          0.48445      0.89299      0.69095  1.0000
  Ge          0.58443      0.47533      0.86550  1.0000
  Ge          0.89371      0.41941      0.53402  1.0000
  Ge          0.50799      0.07960      0.20049  1.0000
  Si          0.29821      0.39615      0.84334  1.0000
  Ge          0.60060      0.89706      0.17521  1.0000
  Ge          0.08916      0.69367      0.51052  1.0000
  Ge          0.70295      0.59416      0.34147  1.0000
  Ge          0.40635      0.10573      0.67616  1.0000
  Ge          0.88202      0.28882      0.00775  1.0000
  Si          0.38720      0.28737      0.47516  1.0000
  Ge          0.87347      0.59362      0.14028  1.0000
  Si          0.71585      0.10233      0.80944  1.0000
  Si          0.59619      0.72206      0.97646  1.0000
  Si          0.10490      0.39098      0.64327  1.0000
  Ge          0.28267      0.87996      0.30835  1.0000
  Ge          0.24596      0.35123      0.94587  1.0000
  Si          0.65634      0.89587      0.27811  1.0000
  Si          0.09243      0.75104      0.61289  1.0000
  Si          0.75035      0.66034      0.44383  1.0000
  Si          0.34443      0.08725      0.77850  1.0000
  Si          0.89054      0.23782      0.11056  1.0000
  Ge          0.33425      0.22923      0.37329  1.0000
  Si          0.88360      0.66008      0.03738  1.0000
  Ge          0.76911      0.09880      0.70664  1.0000
  Ge          0.66809      0.76359      0.87388  1.0000
  Ge          0.08245      0.32679      0.54134  1.0000
  Si          0.22921      0.89535      0.20620  1.0000
  Si          0.96952      0.12290      0.95873  1.0000
  Si          0.87624      0.84033      0.29081  1.0000
  Si          0.15653      0.02889      0.62495  1.0000
  Si          0.02627      0.87539      0.45824  1.0000
  Si          0.13232      0.14859      0.79258  1.0000
  Si          0.84666      0.96792      0.12457  1.0000
  Si          0.10696      0.95096      0.35772  1.0000
  Si          0.84399      0.88852      0.02434  1.0000
  Si          0.04365      0.14684      0.69216  1.0000
  Si          0.89718      0.03496      0.85829  1.0000
  Si          0.14224      0.10857      0.52482  1.0000
  Si          0.95562      0.84499      0.19064  1.0000
  O2          0.92619      0.00310      0.99123  1.0000
  O2          0.99061      0.92032      0.32489  1.0000
  O2          0.08517      0.07178      0.65932  1.0000
  O2          0.06741      0.99125      0.49186  1.0000
  O2          0.01352      0.07683      0.82502  1.0000
  O2          0.93077      0.93496      0.15767  1.0000
  O1          0.33624      0.55550      0.32519  1.0000
  O1          0.42668      0.75577      0.66050  1.0000
  O1          0.22449      0.67470      0.99363  1.0000
  O1          0.66022      0.41009      0.83830  1.0000
  O1          0.55846      0.21930      0.16921  1.0000
  O1          0.74828      0.33710      0.50453  1.0000
  O1          0.56162      0.34731      0.00495  1.0000
  O1          0.78136      0.43697      0.67253  1.0000
  O1          0.66513      0.21265      0.33613  1.0000
  O1          0.42846      0.65579      0.49411  1.0000
  O1          0.21824      0.56142      0.15932  1.0000
  O1          0.34376      0.76049      0.82702  1.0000
  O3          0.11443      0.21897      0.96808  1.0000
  O2          0.77467      0.88571      0.29825  1.0000
  O2          0.10176      0.87948      0.63220  1.0000
  O2          0.87604      0.78132      0.46405  1.0000
  O2          0.21869      0.08429      0.79803  1.0000
  O2          0.89259      0.11544      0.13123  1.0000
  O3          0.20860      0.09509      0.35058  1.0000
  O2          0.89157      0.78905      0.01906  1.0000
  O3          0.89563      0.08392      0.68840  1.0000
  O3          0.81269      0.88646      0.85573  1.0000
  O3          0.07651      0.19101      0.52124  1.0000
  O2          0.10184      0.88589      0.18568  1.0000
  O2          0.92770      0.86879      0.24075  1.0000
  O2          0.13070      0.05697      0.57494  1.0000
  O2          0.95099      0.07721      0.90786  1.0000
  O2          0.08327      0.13596      0.74239  1.0000
  O2          0.86828      0.94103      0.07428  1.0000
  O2          0.05793      0.92874      0.40832  1.0000
  O3          0.88861      0.18920      0.96831  1.0000
  O3          0.81332      0.69480      0.30233  1.0000
  O3          0.30270      0.10380      0.63541  1.0000
  O3          0.09838      0.80263      0.47046  1.0000
  O2          0.21270      0.29517      0.80517  1.0000
  O3          0.70191      0.88741      0.13698  1.0000
  O3          0.17229      0.86951      0.34720  1.0000
  O2          0.69486      0.82005      0.01346  1.0000
  O2          0.10834      0.29571      0.68061  1.0000
  O2          0.81086      0.09690      0.84653  1.0000
  O2          0.29046      0.19428      0.51315  1.0000
  O3          0.87215      0.70022      0.17856  1.0000
  O1          0.34272      0.63986      0.23872  1.0000
  O1          0.34722      0.68967      0.57344  1.0000
  O1          0.30089      0.67793      0.90704  1.0000
  O1          0.67207      0.36578      0.74881  1.0000
  O1          0.61670      0.28484      0.07951  1.0000
  O1          0.69816      0.34321      0.41402  1.0000
  O1          0.37288      0.33960      0.95890  1.0000
  O3          0.67718      0.03177      0.28988  1.0000
  O3          0.95965      0.63419      0.62521  1.0000
  O3          0.63192      0.67887      0.45168  1.0000
  O3          0.33340      0.95428      0.78671  1.0000
  O3          0.02714      0.35923      0.11803  1.0000
  O1          0.32716      0.34871      0.34721  1.0000
  O3          0.99996      0.65644      0.01457  1.0000
  O1          0.64335      0.97430      0.68095  1.0000
  O1          0.66322      0.63258      0.85200  1.0000
  O1          0.95179      0.32108      0.51903  1.0000
  O3          0.34650      0.01609      0.18552  1.0000
  O1          0.75201      0.29986      0.99725  1.0000
  O1          0.68923      0.45003      0.33238  1.0000
  O1          0.54561      0.23815      0.66541  1.0000
  O1          0.21354      0.67499      0.49560  1.0000
  O3          0.31342      0.52854      0.82936  1.0000
  O1          0.45395      0.77367      0.16160  1.0000
  O1          0.27313      0.73739      0.30766  1.0000
  O3          0.47351      0.73656      0.97660  1.0000
  O3          0.24203      0.51379      0.64013  1.0000
  O3          0.72694      0.23747      0.81240  1.0000
  O3          0.51212      0.27815      0.47617  1.0000
  O1          0.73327      0.46041      0.14459  1.0000
  O3          0.75315      0.54232      0.02270  1.0000
  O1          0.46515      0.22028      0.36077  1.0000
  O1          0.78711      0.23884      0.68980  1.0000
  O1          0.22136      0.45131      0.52337  1.0000
  O1          0.54775      0.77860      0.85237  1.0000
  O3          0.22486      0.76635      0.19231  1.0000
  O3          0.52903      0.79713      0.30241  1.0000
  O1          0.25389      0.48074      0.96998  1.0000
  O3          0.19864      0.72960      0.63662  1.0000
  O3          0.46585      0.19297      0.80458  1.0000
  O3          0.71850      0.53538      0.47108  1.0000
  O3          0.79183      0.26012      0.13692  1.0000
  O3          0.21997      0.34644      0.88895  1.0000
  O3          0.65566      0.87215      0.22572  1.0000
  O3          0.11449      0.77418      0.56034  1.0000
  O3          0.77845      0.65575      0.39220  1.0000
  O3          0.34463      0.11763      0.72649  1.0000
  O3          0.86405      0.21112      0.05835  1.0000
  O3          0.30872      0.23111      0.42987  1.0000
  O3          0.90070      0.67537      0.09072  1.0000
  O3          0.76680      0.07788      0.76388  1.0000
  O3          0.67712      0.76993      0.93158  1.0000
  O3          0.06925      0.30890      0.59867  1.0000
  O3          0.22655      0.90973      0.25938  1.0000
  O3          0.55103      0.57956      0.99006  1.0000
  O1          0.43239      0.99039      0.32340  1.0000
  O3          0.01153      0.44001      0.65668  1.0000
  O3          0.42625      0.43077      0.48464  1.0000
  O3          0.57194      0.00227      0.81996  1.0000
  O1          0.98756      0.55644      0.15334  1.0000
  O1          0.56718      0.59521      0.33070  1.0000
  O1          0.01745      0.43270      0.00279  1.0000
  O1          0.40859      0.96813      0.66975  1.0000
  O3          0.43031      0.39754      0.84574  1.0000
  O1          0.94650      0.56080      0.50418  1.0000
  O1          0.60113      0.03453      0.16924  1.0000
  O1          0.56001      0.15585      0.25144  1.0000
  O1          0.83274      0.39722      0.58659  1.0000
  O1          0.60767      0.46251      0.92053  1.0000
  O1          0.45752      0.84694      0.74503  1.0000
  O1          0.13476      0.59591      0.07743  1.0000
  O1          0.39822      0.56152      0.40918  1.0000
  F           0.45442      0.92033      0.23364  1.0000
  F           0.07351      0.52726      0.56485  1.0000
  F           0.44405      0.58380      0.90183  1.0000
  F           0.58170      0.12981      0.73239  1.0000
  F           0.85358      0.43677      0.06660  1.0000
  F           0.52755      0.44995      0.39685  1.0000
