data_cif

_audit_creation_method             'generated by GULP'

_symmetry_space_group_name_H-M     'P 1'
_symmetry_Int_Tables_number        1
_symmetry_cell_setting             triclinic

_cell_length_a                       12.2644
_cell_length_b                       12.2683
_cell_length_c                       30.0916
_cell_angle_alpha                   90.7144
_cell_angle_beta                    89.5672
_cell_angle_gamma                  119.9055

loop_
_atom_site_label
_atom_site_fract_x
_atom_site_fract_y
_atom_site_fract_z
_atom_site_occupancy
  Ge          0.69960      0.37570      0.03389  1.0000
  Si          0.62709      0.29770      0.36314  1.0000
  Ge          0.70448      0.31250      0.69651  1.0000
  Ge          0.31562      0.60473      0.52783  1.0000
  Ge          0.38614      0.70114      0.86163  1.0000
  Ge          0.31058      0.68491      0.19334  1.0000
  Ge          0.36921      0.67827      0.29746  1.0000
  Ge          0.33597      0.63291      0.96200  1.0000
  Ge          0.31734      0.67087      0.63239  1.0000
  Ge          0.63970      0.30955      0.80126  1.0000
  Ge          0.68193      0.36057      0.46644  1.0000
  Ge          0.70152      0.31793      0.13760  1.0000
  Ge          0.52586      0.42420      0.96912  1.0000
  Ge          0.56626      0.07186      0.30121  1.0000
  Ge          0.92682      0.47915      0.62998  1.0000
  Ge          0.48618      0.55311      0.46103  1.0000
  Ge          0.44269      0.92153      0.79505  1.0000
  Ge          0.09031      0.51257      0.12658  1.0000
  Ge          0.41622      0.50551      0.36144  1.0000
  Ge          0.11519      0.57899      0.02591  1.0000
  Ge          0.49093      0.89685      0.69544  1.0000
  Ge          0.58437      0.48339      0.86430  1.0000
  Ge          0.90119      0.40515      0.53067  1.0000
  Ge          0.52439      0.09877      0.20181  1.0000
  Ge          0.29367      0.40761      0.85087  1.0000
  Ge          0.60446      0.88736      0.18619  1.0000
  Ge          0.11459      0.69712      0.51811  1.0000
  Ge          0.70880      0.58054      0.35022  1.0000
  Ge          0.41241      0.11097      0.68462  1.0000
  Ge          0.89744      0.28509      0.01940  1.0000
  Ge          0.39634      0.27695      0.48559  1.0000
  Ge          0.90622      0.60432      0.15159  1.0000
  Ge          0.72051      0.10524      0.81830  1.0000
  Ge          0.60990      0.71686      0.98468  1.0000
  Ge          0.11321      0.38756      0.65111  1.0000
  Ge          0.28749      0.87925      0.31819  1.0000
  Ge          0.24005      0.34575      0.95549  1.0000
  Si          0.65900      0.88562      0.28834  1.0000
  Si          0.11217      0.75657      0.62056  1.0000
  Si          0.76589      0.64905      0.45274  1.0000
  Si          0.34999      0.10695      0.78735  1.0000
  Si          0.90715      0.23459      0.12163  1.0000
  Ge          0.34198      0.22381      0.38062  1.0000
  Si          0.91349      0.65862      0.04890  1.0000
  Si          0.76933      0.09468      0.71508  1.0000
  Si          0.66759      0.76494      0.88211  1.0000
  Si          0.09905      0.32427      0.54806  1.0000
  Si          0.24493      0.90055      0.21590  1.0000
  Si          0.97006      0.10829      0.97017  1.0000
  Si          0.88019      0.83206      0.30268  1.0000
  Si          0.16040      0.02966      0.63597  1.0000
  Si          0.03962      0.87191      0.46876  1.0000
  Si          0.12422      0.15439      0.80207  1.0000
  Si          0.85554      0.96158      0.13651  1.0000
  Si          0.11111      0.94789      0.36815  1.0000
  Si          0.85986      0.87929      0.03647  1.0000
  Si          0.04196      0.14264      0.70202  1.0000
  Si          0.89550      0.03387      0.86894  1.0000
  Si          0.15066      0.10167      0.53617  1.0000
  Si          0.97197      0.85007      0.20303  1.0000
  O2          0.93947      0.99177      0.00210  1.0000
  O2          0.98827      0.91306      0.33864  1.0000
  O2          0.07296      0.05441      0.67025  1.0000
  O2          0.06654      0.98315      0.50387  1.0000
  O2          0.01237      0.06670      0.83598  1.0000
  O2          0.93961      0.93472      0.17095  1.0000
  O1          0.33355      0.54342      0.32527  1.0000
  O1          0.45313      0.77247      0.66020  1.0000
  O1          0.23384      0.67035      0.99223  1.0000
  O1          0.67344      0.44242      0.83217  1.0000
  O1          0.56866      0.22531      0.16772  1.0000
  O1          0.77876      0.32197      0.49454  1.0000
  O1          0.57593      0.33980      0.99995  1.0000
  O1          0.79254      0.43454      0.66445  1.0000
  O3          0.65835      0.20784      0.33565  1.0000
  O1          0.43742      0.64129      0.49480  1.0000
  O1          0.22985      0.56560      0.15892  1.0000
  O1          0.35298      0.78493      0.82694  1.0000
  O3          0.11339      0.21107      0.97802  1.0000
  O2          0.77404      0.87208      0.30885  1.0000
  O2          0.12443      0.88493      0.64154  1.0000
  O2          0.89245      0.76790      0.47292  1.0000
  O2          0.23320      0.11843      0.80784  1.0000
  O2          0.89855      0.10852      0.14199  1.0000
  O3          0.21576      0.08982      0.35722  1.0000
  O2          0.90675      0.77872      0.02916  1.0000
  O2          0.89565      0.10068      0.69444  1.0000
  O2          0.79116      0.88689      0.86141  1.0000
  O2          0.10467      0.20287      0.52811  1.0000
  O2          0.11984      0.89723      0.19598  1.0000
  O2          0.94154      0.86898      0.25378  1.0000
  O2          0.12722      0.05369      0.58669  1.0000
  O2          0.94689      0.05941      0.91908  1.0000
  O2          0.06688      0.12076      0.75258  1.0000
  O2          0.88508      0.93273      0.08677  1.0000
  O2          0.07155      0.93265      0.41996  1.0000
  O3          0.88619      0.17205      0.98077  1.0000
  O3          0.81645      0.68434      0.31112  1.0000
  O3          0.30676      0.11468      0.64629  1.0000
  O3          0.11916      0.80499      0.47919  1.0000
  O3          0.18552      0.30104      0.81165  1.0000
  O3          0.70923      0.88190      0.14717  1.0000
  O3          0.16936      0.86081      0.35578  1.0000
  O3          0.71426      0.81676      0.02519  1.0000
  O3          0.12562      0.28660      0.68892  1.0000
  O3          0.83241      0.11602      0.85682  1.0000
  O3          0.29639      0.16665      0.52483  1.0000
  O3          0.89254      0.70550      0.18994  1.0000
  O1          0.29356      0.63505      0.24785  1.0000
  O1          0.36212      0.63817      0.58277  1.0000
  O1          0.34611      0.71737      0.91506  1.0000
  O1          0.71491      0.35879      0.75172  1.0000
  O1          0.65097      0.34537      0.08809  1.0000
  O3          0.65108      0.28746      0.41543  1.0000
  O1          0.36767      0.34780      0.97969  1.0000
  O3          0.65919      0.00199      0.31288  1.0000
  O3          0.99250      0.64165      0.64288  1.0000
  O3          0.64826      0.65296      0.47356  1.0000
  O3          0.34610      0.98743      0.80891  1.0000
  O3          0.02627      0.35278      0.14292  1.0000
  O1          0.31773      0.34528      0.36793  1.0000
  O3          0.04691      0.67510      0.03780  1.0000
  O3          0.65292      0.95842      0.70407  1.0000
  O3          0.68293      0.64340      0.87478  1.0000
  O3          0.96183      0.30385      0.53840  1.0000
  O3          0.36206      0.03863      0.20794  1.0000
  O1          0.75283      0.27421      0.01967  1.0000
  O3          0.71754      0.44440      0.34943  1.0000
  O1          0.54665      0.25255      0.68270  1.0000
  O1          0.25571      0.70356      0.51551  1.0000
  O1          0.28620      0.54132      0.84794  1.0000
  O1          0.47087      0.74629      0.18242  1.0000
  O1          0.30736      0.75344      0.32855  1.0000
  O1          0.46941      0.70597      0.99647  1.0000
  O1          0.24015      0.53373      0.66219  1.0000
  O1          0.70222      0.23321      0.82995  1.0000
  O1          0.54397      0.29914      0.49617  1.0000
  O1          0.78275      0.45885      0.16550  1.0000
  O3          0.80726      0.53258      0.02457  1.0000
  O3          0.48212      0.26075      0.35491  1.0000
  O3          0.74185      0.19342      0.69058  1.0000
  O3          0.19523      0.44887      0.52200  1.0000
  O3          0.54435      0.73971      0.85617  1.0000
  O3          0.27544      0.80593      0.18880  1.0000
  O3          0.53318      0.75398      0.29768  1.0000
  O1          0.22521      0.47060      0.97204  1.0000
  O3          0.24147      0.75921      0.63234  1.0000
  O3          0.47594      0.23606      0.80080  1.0000
  O3          0.76833      0.52403      0.46710  1.0000
  O3          0.77631      0.22896      0.13443  1.0000
  O1          0.23480      0.32287      0.89877  1.0000
  O3          0.68490      0.91068      0.23578  1.0000
  O3          0.09306      0.75811      0.56759  1.0000
  O3          0.76989      0.66315      0.39943  1.0000
  O3          0.33142      0.08982      0.73415  1.0000
  O3          0.92559      0.23091      0.06842  1.0000
  O1          0.33557      0.19543      0.43626  1.0000
  O3          0.88416      0.65863      0.10115  1.0000
  O3          0.79629      0.12203      0.76741  1.0000
  O3          0.66721      0.79428      0.93430  1.0000
  O3          0.12940      0.32796      0.60007  1.0000
  O3          0.21379      0.86681      0.26748  1.0000
  O1          0.60765      0.57640      0.98894  1.0000
  O1          0.42236      0.01700      0.32971  1.0000
  O1          0.97710      0.38898      0.66016  1.0000
  O1          0.39600      0.41441      0.49271  1.0000
  O1          0.58260      0.97024      0.82609  1.0000
  O1          0.04517      0.60767      0.15792  1.0000
  O1          0.56143      0.54847      0.33734  1.0000
  O1          0.00299      0.43342      0.00371  1.0000
  O1          0.44835      0.99707      0.67085  1.0000
  O1          0.44584      0.44621      0.83843  1.0000
  O1          0.99912      0.54765      0.50556  1.0000
  O1          0.57124      0.00366      0.17479  1.0000
  O1          0.59577      0.15577      0.25210  1.0000
  O1          0.84204      0.42091      0.58050  1.0000
  O1          0.55426      0.40700      0.91430  1.0000
  O1          0.41551      0.83935      0.74473  1.0000
  O1          0.16822      0.55808      0.07614  1.0000
  O1          0.43040      0.57994      0.41139  1.0000
  F           0.46245      0.91685      0.26149  1.0000
  F           0.07987      0.52822      0.59308  1.0000
  F           0.42803      0.56052      0.92760  1.0000
  F           0.54742      0.07682      0.76011  1.0000
  F           0.93037      0.45666      0.09392  1.0000
  F           0.53468      0.44768      0.42567  1.0000
