data_cif

_audit_creation_method             'generated by GULP'

_symmetry_space_group_name_H-M     'P 1'
_symmetry_Int_Tables_number        1
_symmetry_cell_setting             triclinic

_cell_length_a                       12.2658
_cell_length_b                       12.2606
_cell_length_c                       30.1451
_cell_angle_alpha                   89.5804
_cell_angle_beta                    90.3970
_cell_angle_gamma                  119.7676

loop_
_atom_site_label
_atom_site_fract_x
_atom_site_fract_y
_atom_site_fract_z
_atom_site_occupancy
  Ge          0.69960      0.37570      0.03389  1.0000
  Ge          0.65016      0.33398      0.36651  1.0000
  Ge          0.69214      0.31546      0.69928  1.0000
  Ge          0.32604      0.64104      0.53403  1.0000
  Ge          0.38528      0.67854      0.87175  1.0000
  Ge          0.33743      0.69757      0.20054  1.0000
  Ge          0.40182      0.69793      0.30492  1.0000
  Ge          0.31020      0.62978      0.97162  1.0000
  Ge          0.32278      0.69936      0.63798  1.0000
  Ge          0.63251      0.30334      0.80325  1.0000
  Ge          0.71433      0.39438      0.47089  1.0000
  Ge          0.69798      0.31095      0.13831  1.0000
  Ge          0.52385      0.42869      0.97207  1.0000
  Ge          0.60122      0.11254      0.30274  1.0000
  Ge          0.91008      0.48993      0.63551  1.0000
  Ge          0.50106      0.59566      0.47020  1.0000
  Ge          0.43289      0.89753      0.80648  1.0000
  Ge          0.11304      0.52440      0.13746  1.0000
  Ge          0.45369      0.52671      0.37105  1.0000
  Ge          0.08827      0.57265      0.03806  1.0000
  Ge          0.49439      0.91721      0.70490  1.0000
  Ge          0.58896      0.48182      0.86751  1.0000
  Ge          0.93660      0.44483      0.53661  1.0000
  Ge          0.52823      0.08730      0.20371  1.0000
  Ge          0.29890      0.40377      0.84997  1.0000
  Ge          0.62098      0.90179      0.18234  1.0000
  Ge          0.12205      0.72204      0.51499  1.0000
  Ge          0.73101      0.61910      0.34915  1.0000
  Ge          0.40893      0.10926      0.68295  1.0000
  Ge          0.90341      0.29515      0.01619  1.0000
  Ge          0.42195      0.30257      0.48185  1.0000
  Ge          0.89885      0.60290      0.14925  1.0000
  Si          0.72171      0.10882      0.81608  1.0000
  Ge          0.60227      0.71982      0.98408  1.0000
  Ge          0.12225      0.40785      0.64786  1.0000
  Ge          0.30971      0.89913      0.31528  1.0000
  Si          0.24429      0.34700      0.95228  1.0000
  Si          0.68250      0.91441      0.28511  1.0000
  Si          0.10842      0.76777      0.61761  1.0000
  Si          0.77970      0.67694      0.45201  1.0000
  Si          0.34916      0.09658      0.78540  1.0000
  Si          0.91527      0.24612      0.11909  1.0000
  Si          0.36028      0.24854      0.37950  1.0000
  Si          0.90210      0.66495      0.04675  1.0000
  Ge          0.77352      0.10516      0.71396  1.0000
  Ge          0.66990      0.76844      0.87955  1.0000
  Si          0.12088      0.35070      0.54597  1.0000
  Si          0.25136      0.90239      0.21297  1.0000
  Si          0.97418      0.12030      0.96512  1.0000
  Si          0.90673      0.86507      0.29814  1.0000
  Si          0.16507      0.04249      0.63081  1.0000
  Si          0.05276      0.90000      0.46433  1.0000
  Si          0.13214      0.15545      0.79802  1.0000
  Si          0.86689      0.97326      0.13173  1.0000
  Si          0.13648      0.97633      0.36440  1.0000
  Si          0.85480      0.89087      0.03188  1.0000
  Si          0.05155      0.15801      0.69773  1.0000
  Si          0.89914      0.03872      0.86432  1.0000
  Si          0.17199      0.12816      0.53081  1.0000
  Si          0.97839      0.85394      0.19808  1.0000
  O2          0.94113      0.00197      0.99742  1.0000
  O2          0.02497      0.95141      0.32994  1.0000
  O2          0.08487      0.07704      0.66418  1.0000
  O2          0.08533      0.01696      0.49670  1.0000
  O2          0.01747      0.08107      0.83213  1.0000
  O2          0.95332      0.94108      0.16383  1.0000
  O1          0.36548      0.57513      0.33747  1.0000
  O1          0.44118      0.77904      0.67246  1.0000
  O1          0.22374      0.66241      0.00542  1.0000
  O1          0.67086      0.42321      0.83913  1.0000
  O1          0.57476      0.22312      0.16997  1.0000
  O1          0.80139      0.35702      0.50288  1.0000
  O1          0.56433      0.34046      0.00470  1.0000
  O1          0.78648      0.45177      0.67039  1.0000
  O1          0.68637      0.23606      0.33760  1.0000
  O1          0.46133      0.67830      0.50577  1.0000
  O1          0.23764      0.56280      0.17231  1.0000
  O1          0.34774      0.78053      0.84131  1.0000
  O2          0.12101      0.22404      0.97257  1.0000
  O2          0.80362      0.90902      0.30534  1.0000
  O2          0.11540      0.89416      0.63769  1.0000
  O2          0.90608      0.79743      0.47185  1.0000
  O2          0.22829      0.10236      0.80521  1.0000
  O2          0.90974      0.11969      0.13940  1.0000
  O2          0.24323      0.12184      0.35899  1.0000
  O2          0.89081      0.78178      0.02615  1.0000
  O3          0.90574      0.10904      0.69178  1.0000
  O3          0.81082      0.89220      0.85884  1.0000
  O2          0.13332      0.23551      0.52513  1.0000
  O2          0.12334      0.89088      0.19234  1.0000
  O2          0.95358      0.88554      0.24750  1.0000
  O2          0.14228      0.07159      0.58046  1.0000
  O2          0.94934      0.07271      0.91469  1.0000
  O2          0.07887      0.13145      0.74809  1.0000
  O2          0.88958      0.94883      0.08117  1.0000
  O2          0.07877      0.94911      0.41376  1.0000
  O3          0.89191      0.18264      0.97792  1.0000
  O3          0.84512      0.72080      0.31142  1.0000
  O3          0.30974      0.12073      0.64320  1.0000
  O3          0.13490      0.83677      0.47693  1.0000
  O3          0.20073      0.30113      0.80907  1.0000
  O3          0.72263      0.89020      0.14446  1.0000
  O3          0.20025      0.89362      0.35398  1.0000
  O3          0.70799      0.82898      0.02287  1.0000
  O3          0.12825      0.30520      0.68738  1.0000
  O2          0.81821      0.10823      0.85362  1.0000
  O3          0.31796      0.19125      0.52021  1.0000
  O3          0.89445      0.70788      0.18773  1.0000
  O1          0.36856      0.65192      0.25013  1.0000
  O1          0.37118      0.71769      0.58334  1.0000
  O1          0.29844      0.67021      0.91795  1.0000
  O1          0.66639      0.36069      0.75013  1.0000
  O1          0.65224      0.29998      0.08331  1.0000
  O1          0.72657      0.36273      0.41596  1.0000
  O3          0.36482      0.33047      0.96076  1.0000
  O3          0.70213      0.05113      0.29478  1.0000
  O3          0.97106      0.65189      0.62705  1.0000
  O3          0.66275      0.69670      0.46221  1.0000
  O3          0.33451      0.96336      0.79556  1.0000
  O3          0.05165      0.36244      0.12936  1.0000
  O3          0.35671      0.36534      0.35761  1.0000
  O3          0.02142      0.66865      0.02480  1.0000
  O1          0.65178      0.97716      0.69036  1.0000
  O1          0.66716      0.63951      0.85584  1.0000
  O3          0.00292      0.34922      0.52296  1.0000
  O3          0.36631      0.02193      0.19056  1.0000
  O1          0.77603      0.31410      0.00458  1.0000
  O1          0.71056      0.47311      0.33731  1.0000
  O1          0.55242      0.23755      0.67062  1.0000
  O1          0.24773      0.70114      0.50394  1.0000
  O1          0.31297      0.54525      0.83745  1.0000
  O1          0.47539      0.77525      0.17108  1.0000
  O1          0.30327      0.75790      0.31787  1.0000
  O1          0.46913      0.72894      0.98591  1.0000
  O1          0.26408      0.54031      0.64929  1.0000
  O3          0.73344      0.24537      0.81524  1.0000
  O1          0.55654      0.29561      0.48406  1.0000
  O1          0.75777      0.46878      0.15182  1.0000
  O3          0.77277      0.53939      0.03383  1.0000
  O3          0.48639      0.24557      0.36702  1.0000
  O1          0.78448      0.24527      0.69866  1.0000
  O3          0.25112      0.47724      0.53527  1.0000
  O1          0.54795      0.78621      0.86169  1.0000
  O3          0.24881      0.77328      0.20096  1.0000
  O3          0.55750      0.81725      0.31083  1.0000
  O3          0.26934      0.47094      0.97753  1.0000
  O3          0.20348      0.73628      0.64376  1.0000
  O3          0.47416      0.20030      0.81059  1.0000
  O3          0.75115      0.55042      0.47737  1.0000
  O3          0.81738      0.27390      0.14433  1.0000
  O3          0.21869      0.34759      0.89993  1.0000
  O3          0.68014      0.88483      0.23317  1.0000
  O3          0.13913      0.79667      0.56574  1.0000
  O3          0.80649      0.67589      0.39999  1.0000
  O3          0.35102      0.12749      0.73333  1.0000
  O3          0.88660      0.21921      0.06697  1.0000
  O3          0.34035      0.24496      0.43250  1.0000
  O3          0.91925      0.68388      0.09980  1.0000
  O3          0.77489      0.08346      0.77108  1.0000
  O1          0.68884      0.77469      0.93632  1.0000
  O3          0.09756      0.32586      0.59868  1.0000
  O3          0.24974      0.92121      0.26589  1.0000
  O1          0.55992      0.56719      0.99754  1.0000
  O1          0.45879      0.01384      0.32799  1.0000
  O1          0.00852      0.44406      0.66075  1.0000
  O1          0.45679      0.45167      0.49493  1.0000
  O3          0.57920      0.01144      0.82797  1.0000
  O1          0.01367      0.56792      0.16239  1.0000
  O1          0.59416      0.61928      0.34075  1.0000
  O1          0.03869      0.43219      0.00772  1.0000
  O1          0.40437      0.96991      0.67513  1.0000
  O1          0.43806      0.40263      0.84685  1.0000
  O1          0.98547      0.58615      0.50626  1.0000
  O1          0.61948      0.03795      0.17344  1.0000
  O1          0.58448      0.17112      0.25311  1.0000
  O1          0.85212      0.41574      0.58597  1.0000
  O1          0.60357      0.45788      0.92270  1.0000
  O1          0.44932      0.84367      0.75596  1.0000
  O1          0.17047      0.59924      0.08801  1.0000
  O1          0.42630      0.58166      0.42073  1.0000
  F           0.47895      0.93365      0.24019  1.0000
  F           0.08922      0.54652      0.57310  1.0000
  F           0.45324      0.58489      0.90713  1.0000
  F           0.55842      0.08599      0.73781  1.0000
  F           0.93269      0.46797      0.07394  1.0000
  F           0.55706      0.47486      0.40691  1.0000
