data_cif

_audit_creation_method             'generated by GULP'

_symmetry_space_group_name_H-M     'P 1'
_symmetry_Int_Tables_number        1
_symmetry_cell_setting             triclinic

_cell_length_a                       12.2947
_cell_length_b                       12.2966
_cell_length_c                       30.1214
_cell_angle_alpha                   89.8360
_cell_angle_beta                    90.7162
_cell_angle_gamma                  120.0581

loop_
_atom_site_label
_atom_site_fract_x
_atom_site_fract_y
_atom_site_fract_z
_atom_site_occupancy
  Ge          0.69960      0.37570      0.03389  1.0000
  Ge          0.63145      0.32034      0.36559  1.0000
  Ge          0.68250      0.30325      0.69868  1.0000
  Ge          0.30438      0.62449      0.53163  1.0000
  Ge          0.37710      0.66094      0.86756  1.0000
  Ge          0.31291      0.68685      0.19751  1.0000
  Ge          0.37865      0.68955      0.30165  1.0000
  Ge          0.31477      0.62487      0.96688  1.0000
  Ge          0.31509      0.69460      0.63563  1.0000
  Ge          0.61571      0.28944      0.80179  1.0000
  Ge          0.68874      0.38160      0.47075  1.0000
  Ge          0.66832      0.29726      0.13362  1.0000
  Si          0.52364      0.41525      0.96999  1.0000
  Ge          0.58101      0.10191      0.30026  1.0000
  Ge          0.90161      0.48281      0.63611  1.0000
  Ge          0.48093      0.57932      0.46829  1.0000
  Ge          0.41793      0.87471      0.80139  1.0000
  Ge          0.08267      0.50880      0.13650  1.0000
  Ge          0.42939      0.51810      0.36770  1.0000
  Ge          0.09589      0.57531      0.03189  1.0000
  Ge          0.49160      0.91477      0.70145  1.0000
  Ge          0.57486      0.46888      0.86712  1.0000
  Ge          0.91258      0.43061      0.53663  1.0000
  Ge          0.50526      0.07569      0.20070  1.0000
  Si          0.28963      0.38754      0.84651  1.0000
  Ge          0.59627      0.88933      0.17950  1.0000
  Ge          0.10183      0.70628      0.51446  1.0000
  Ge          0.70677      0.60340      0.34815  1.0000
  Ge          0.39839      0.09855      0.67993  1.0000
  Ge          0.88580      0.28506      0.01333  1.0000
  Si          0.40184      0.29221      0.48179  1.0000
  Ge          0.87192      0.58793      0.14876  1.0000
  Ge          0.70991      0.09418      0.81209  1.0000
  Ge          0.59876      0.70119      0.98051  1.0000
  Ge          0.11358      0.40253      0.64733  1.0000
  Ge          0.28787      0.88977      0.31241  1.0000
  Ge          0.24369      0.33726      0.94910  1.0000
  Si          0.66004      0.90290      0.28232  1.0000
  Si          0.09830      0.76014      0.61715  1.0000
  Si          0.76047      0.66533      0.45090  1.0000
  Si          0.33555      0.07518      0.78250  1.0000
  Si          0.88470      0.22964      0.11577  1.0000
  Ge          0.34074      0.23915      0.37926  1.0000
  Ge          0.89326      0.65796      0.04460  1.0000
  Si          0.76866      0.09865      0.71030  1.0000
  Ge          0.66319      0.75699      0.87675  1.0000
  Si          0.09699      0.33651      0.54521  1.0000
  Si          0.22740      0.89067      0.21012  1.0000
  Si          0.96711      0.11501      0.96291  1.0000
  Si          0.87989      0.84828      0.29671  1.0000
  Si          0.15297      0.03542      0.62940  1.0000
  Si          0.03548      0.88641      0.46366  1.0000
  Si          0.12471      0.13989      0.79599  1.0000
  Si          0.84290      0.96051      0.13038  1.0000
  Si          0.11270      0.96161      0.36295  1.0000
  Si          0.84785      0.88327      0.03043  1.0000
  Si          0.04347      0.15358      0.69620  1.0000
  Si          0.89329      0.02963      0.86210  1.0000
  Si          0.15461      0.12058      0.52937  1.0000
  Si          0.95320      0.84007      0.19701  1.0000
  O2          0.91566      0.00015      0.99726  1.0000
  O2          0.99526      0.92997      0.33044  1.0000
  O2          0.06997      0.06903      0.66182  1.0000
  O2          0.07322      0.00609      0.49555  1.0000
  O2          0.01034      0.06718      0.82971  1.0000
  O2          0.92598      0.92792      0.16407  1.0000
  O1          0.34250      0.56914      0.33508  1.0000
  O1          0.44129      0.77974      0.66689  1.0000
  O1          0.23313      0.66161      0.00355  1.0000
  O1          0.65223      0.40836      0.83829  1.0000
  O1          0.54898      0.20941      0.16694  1.0000
  O1          0.77183      0.34332      0.50444  1.0000
  O3          0.56382      0.33713      0.99952  1.0000
  O1          0.77991      0.44118      0.67215  1.0000
  O1          0.66922      0.22489      0.33554  1.0000
  O1          0.43959      0.65919      0.50411  1.0000
  O1          0.21184      0.55027      0.16920  1.0000
  O1          0.33262      0.75042      0.83374  1.0000
  O3          0.11494      0.20357      0.97083  1.0000
  O2          0.78008      0.89638      0.30273  1.0000
  O2          0.10611      0.88784      0.63649  1.0000
  O2          0.88736      0.78654      0.47089  1.0000
  O2          0.21228      0.07763      0.80125  1.0000
  O2          0.88411      0.10721      0.13724  1.0000
  O3          0.21150      0.10658      0.35690  1.0000
  O3          0.90979      0.79831      0.02368  1.0000
  O2          0.89693      0.11194      0.69043  1.0000
  O3          0.79982      0.88282      0.85528  1.0000
  O2          0.10181      0.21616      0.52511  1.0000
  O2          0.09791      0.87742      0.19007  1.0000
  O2          0.93218      0.87212      0.24689  1.0000
  O2          0.13301      0.06405      0.57874  1.0000
  O2          0.94259      0.06040      0.91293  1.0000
  O2          0.07145      0.12478      0.74602  1.0000
  O2          0.87129      0.93658      0.08072  1.0000
  O2          0.06245      0.93474      0.41331  1.0000
  O3          0.89537      0.19086      0.97184  1.0000
  O3          0.81545      0.70369      0.30897  1.0000
  O3          0.29781      0.11488      0.64222  1.0000
  O3          0.11361      0.81979      0.47631  1.0000
  O2          0.20249      0.28747      0.80810  1.0000
  O3          0.69761      0.87791      0.14167  1.0000
  O3          0.18038      0.88301      0.35162  1.0000
  O3          0.69934      0.79921      0.02240  1.0000
  O3          0.12341      0.29962      0.68578  1.0000
  O3          0.81965      0.10302      0.85139  1.0000
  O2          0.30353      0.19544      0.51877  1.0000
  O3          0.86845      0.69327      0.18761  1.0000
  O1          0.34466      0.64091      0.24691  1.0000
  O1          0.35392      0.70498      0.58027  1.0000
  O1          0.29442      0.66349      0.91404  1.0000
  O1          0.64820      0.34540      0.74859  1.0000
  O1          0.61759      0.28876      0.07953  1.0000
  O1          0.70218      0.34519      0.41647  1.0000
  O3          0.37413      0.32434      0.95915  1.0000
  O3          0.68070      0.03990      0.29179  1.0000
  O3          0.96175      0.64430      0.62827  1.0000
  O3          0.64230      0.68215      0.46123  1.0000
  O3          0.31960      0.94124      0.79198  1.0000
  O3          0.02135      0.34975      0.12503  1.0000
  O1          0.33120      0.35947      0.35530  1.0000
  O1          0.01515      0.65230      0.01990  1.0000
  O3          0.65258      0.98190      0.68671  1.0000
  O1          0.65534      0.62518      0.85388  1.0000
  O3          0.97665      0.33369      0.52334  1.0000
  O3          0.34233      0.00864      0.18754  1.0000
  O1          0.75978      0.30112      0.00044  1.0000
  O1          0.69252      0.46015      0.33692  1.0000
  O1          0.54429      0.22533      0.66886  1.0000
  O1          0.22543      0.68419      0.50190  1.0000
  O3          0.30448      0.52046      0.83480  1.0000
  O1          0.44960      0.76275      0.16779  1.0000
  O1          0.27988      0.74811      0.31410  1.0000
  O1          0.47048      0.72002      0.98277  1.0000
  O1          0.25519      0.53593      0.64833  1.0000
  O1          0.71868      0.23724      0.81395  1.0000
  O3          0.52775      0.28505      0.48286  1.0000
  O1          0.72915      0.45548      0.14915  1.0000
  O1          0.75198      0.53777      0.02673  1.0000
  O1          0.46913      0.22982      0.36359  1.0000
  O3          0.77259      0.22969      0.70031  1.0000
  O3          0.22656      0.46069      0.53227  1.0000
  O1          0.53921      0.77104      0.85848  1.0000
  O3          0.22280      0.76030      0.19804  1.0000
  O3          0.53504      0.80709      0.30815  1.0000
  O1          0.25358      0.46467      0.97471  1.0000
  O3          0.19648      0.73194      0.64253  1.0000
  O3          0.45901      0.17892      0.80900  1.0000
  O3          0.73299      0.53934      0.47604  1.0000
  O3          0.78451      0.25446      0.13970  1.0000
  O3          0.21495      0.33469      0.89252  1.0000
  O3          0.65546      0.87172      0.23032  1.0000
  O3          0.12261      0.78424      0.56487  1.0000
  O3          0.78467      0.66401      0.39872  1.0000
  O3          0.33952      0.11041      0.73090  1.0000
  O3          0.86064      0.20355      0.06324  1.0000
  O3          0.32276      0.23646      0.43640  1.0000
  O1          0.90722      0.67664      0.10138  1.0000
  O3          0.76783      0.07184      0.76298  1.0000
  O1          0.68601      0.76289      0.93355  1.0000
  O3          0.08285      0.31797      0.59823  1.0000
  O3          0.22802      0.91221      0.26303  1.0000
  O3          0.54330      0.54472      0.99188  1.0000
  O1          0.43805      0.00386      0.32527  1.0000
  O1          0.00094      0.43859      0.66105  1.0000
  O3          0.43834      0.43440      0.49241  1.0000
  O1          0.56102      0.98511      0.82559  1.0000
  O1          0.98035      0.54351      0.16248  1.0000
  O1          0.57116      0.60580      0.33876  1.0000
  O1          0.02591      0.42391      0.01145  1.0000
  O1          0.39827      0.96262      0.67077  1.0000
  O3          0.42195      0.38971      0.84665  1.0000
  O1          0.96307      0.57068      0.50613  1.0000
  O1          0.59514      0.02500      0.17077  1.0000
  O1          0.56224      0.15874      0.25058  1.0000
  O1          0.83611      0.40621      0.58711  1.0000
  O3          0.59550      0.45182      0.92260  1.0000
  O1          0.44051      0.82886      0.75023  1.0000
  O1          0.13317      0.58945      0.08743  1.0000
  O1          0.40723      0.56928      0.41884  1.0000
  F           0.45460      0.92052      0.23710  1.0000
  F           0.07216      0.53578      0.57244  1.0000
  F           0.44266      0.57579      0.90646  1.0000
  F           0.54278      0.06803      0.73736  1.0000
  F           0.85867      0.43963      0.07058  1.0000
  F           0.53503      0.45765      0.40337  1.0000
