data_cif

_audit_creation_method             'generated by GULP'

_symmetry_space_group_name_H-M     'P 1'
_symmetry_Int_Tables_number        1
_symmetry_cell_setting             triclinic

_cell_length_a                       12.2760
_cell_length_b                       12.2697
_cell_length_c                       30.1323
_cell_angle_alpha                   89.9465
_cell_angle_beta                    89.9380
_cell_angle_gamma                  119.9854

loop_
_atom_site_label
_atom_site_fract_x
_atom_site_fract_y
_atom_site_fract_z
_atom_site_occupancy
  Ge          0.69960      0.37570      0.03389  1.0000
  Ge          0.65318      0.33852      0.36653  1.0000
  Ge          0.68813      0.32674      0.70002  1.0000
  Ge          0.32393      0.64809      0.53200  1.0000
  Si          0.37421      0.68860      0.86501  1.0000
  Ge          0.34238      0.70491      0.19803  1.0000
  Ge          0.40207      0.70011      0.30261  1.0000
  Ge          0.31459      0.62821      0.96878  1.0000
  Ge          0.32232      0.70889      0.63603  1.0000
  Ge          0.62343      0.32239      0.80400  1.0000
  Ge          0.71371      0.40212      0.47082  1.0000
  Ge          0.70697      0.31669      0.13834  1.0000
  Ge          0.52622      0.42503      0.97064  1.0000
  Ge          0.60470      0.11525      0.30367  1.0000
  Ge          0.90832      0.49773      0.63581  1.0000
  Ge          0.49918      0.60227      0.46760  1.0000
  Ge          0.42449      0.90704      0.80382  1.0000
  Ge          0.12251      0.53223      0.13270  1.0000
  Ge          0.45485      0.53050      0.36852  1.0000
  Ge          0.09029      0.57453      0.03375  1.0000
  Ge          0.49226      0.92639      0.70340  1.0000
  Ge          0.57748      0.49357      0.87157  1.0000
  Ge          0.93419      0.45146      0.53671  1.0000
  Ge          0.53626      0.09496      0.20445  1.0000
  Ge          0.29980      0.40826      0.84912  1.0000
  Ge          0.62822      0.90971      0.18185  1.0000
  Ge          0.11961      0.72852      0.51405  1.0000
  Ge          0.73331      0.62253      0.34783  1.0000
  Ge          0.40521      0.11796      0.68211  1.0000
  Ge          0.90334      0.29549      0.01453  1.0000
  Ge          0.42050      0.30988      0.48047  1.0000
  Ge          0.90860      0.61024      0.14715  1.0000
  Ge          0.71600      0.12185      0.81633  1.0000
  Ge          0.60518      0.71853      0.98379  1.0000
  Ge          0.12126      0.41712      0.64684  1.0000
  Ge          0.31177      0.90184      0.31480  1.0000
  Si          0.24702      0.34454      0.95148  1.0000
  Si          0.68523      0.91720      0.28466  1.0000
  Si          0.10733      0.77602      0.61676  1.0000
  Si          0.77859      0.68348      0.45064  1.0000
  Si          0.34239      0.10511      0.78502  1.0000
  Si          0.92322      0.25203      0.11723  1.0000
  Si          0.36241      0.25262      0.37824  1.0000
  Si          0.90533      0.66685      0.04486  1.0000
  Ge          0.77242      0.11639      0.71300  1.0000
  Ge          0.66459      0.77314      0.87945  1.0000
  Si          0.11805      0.35754      0.54491  1.0000
  Si          0.25819      0.91021      0.21238  1.0000
  Si          0.97316      0.11912      0.96397  1.0000
  Si          0.90949      0.86842      0.29699  1.0000
  Si          0.16255      0.05067      0.62988  1.0000
  Si          0.05188      0.90644      0.46329  1.0000
  Si          0.12403      0.16361      0.79715  1.0000
  Si          0.87439      0.97935      0.13073  1.0000
  Si          0.13816      0.97989      0.36331  1.0000
  Si          0.85683      0.89132      0.03117  1.0000
  Si          0.04958      0.16860      0.69628  1.0000
  Si          0.89193      0.05042      0.86370  1.0000
  Si          0.16982      0.13550      0.52986  1.0000
  Si          0.98554      0.86094      0.19688  1.0000
  O2          0.94160      0.00174      0.99625  1.0000
  O2          0.02745      0.95515      0.32882  1.0000
  O2          0.08187      0.08472      0.66347  1.0000
  O2          0.08412      0.02361      0.49572  1.0000
  O2          0.00706      0.08358      0.83010  1.0000
  O2          0.96054      0.94765      0.16272  1.0000
  O1          0.36636      0.57602      0.33426  1.0000
  O1          0.44127      0.78966      0.67028  1.0000
  O1          0.22142      0.66275      0.99786  1.0000
  O1          0.66198      0.44173      0.83803  1.0000
  O1          0.58556      0.23213      0.17151  1.0000
  O1          0.79786      0.36393      0.50354  1.0000
  O1          0.56323      0.33988      0.00653  1.0000
  O1          0.78518      0.46217      0.67082  1.0000
  O1          0.68943      0.23836      0.33894  1.0000
  O1          0.45833      0.68546      0.50282  1.0000
  O1          0.24743      0.57306      0.16739  1.0000
  O3          0.33636      0.77834      0.83823  1.0000
  O2          0.12004      0.22356      0.97100  1.0000
  O2          0.80535      0.91072      0.30479  1.0000
  O2          0.11410      0.90266      0.63683  1.0000
  O2          0.90454      0.80459      0.47059  1.0000
  O2          0.22176      0.11251      0.80416  1.0000
  O2          0.91959      0.12681      0.13755  1.0000
  O2          0.24662      0.12495      0.35752  1.0000
  O2          0.89280      0.78259      0.02433  1.0000
  O3          0.90534      0.12468      0.68879  1.0000
  O3          0.78612      0.90770      0.85489  1.0000
  O2          0.12975      0.24152      0.52423  1.0000
  O2          0.13163      0.90111      0.19179  1.0000
  O2          0.95689      0.89022      0.24630  1.0000
  O2          0.14020      0.07927      0.57959  1.0000
  O2          0.94605      0.06847      0.91368  1.0000
  O2          0.07353      0.14205      0.74693  1.0000
  O2          0.89451      0.95083      0.08020  1.0000
  O2          0.07988      0.95510      0.41271  1.0000
  O3          0.89021      0.18072      0.97677  1.0000
  O3          0.84845      0.72398      0.31005  1.0000
  O3          0.30739      0.12987      0.64241  1.0000
  O3          0.13294      0.84272      0.47597  1.0000
  O3          0.19112      0.30924      0.80941  1.0000
  O3          0.73007      0.89786      0.14390  1.0000
  O3          0.20070      0.89578      0.35323  1.0000
  O3          0.70931      0.82759      0.02306  1.0000
  O3          0.13025      0.31588      0.68593  1.0000
  O3          0.82593      0.13301      0.85624  1.0000
  O3          0.31603      0.19968      0.51922  1.0000
  O3          0.90395      0.71482      0.18602  1.0000
  O1          0.36893      0.65594      0.24759  1.0000
  O1          0.37028      0.72593      0.58124  1.0000
  O3          0.31086      0.66270      0.91287  1.0000
  O1          0.65406      0.37100      0.74925  1.0000
  O1          0.65760      0.30176      0.08386  1.0000
  O1          0.72886      0.37029      0.41605  1.0000
  O3          0.36387      0.32550      0.96239  1.0000
  O3          0.70525      0.05369      0.29545  1.0000
  O3          0.97030      0.65983      0.62683  1.0000
  O3          0.66144      0.70351      0.46011  1.0000
  O3          0.32390      0.96872      0.79560  1.0000
  O3          0.06052      0.36959      0.12586  1.0000
  O3          0.35911      0.36832      0.35564  1.0000
  O3          0.02400      0.67076      0.02172  1.0000
  O1          0.64997      0.98831      0.68900  1.0000
  O1          0.67684      0.65216      0.85781  1.0000
  O3          0.99989      0.35566      0.52233  1.0000
  O3          0.37484      0.03040      0.19072  1.0000
  O1          0.77570      0.31359      0.00408  1.0000
  O1          0.71402      0.47651      0.33667  1.0000
  O1          0.55022      0.24437      0.67043  1.0000
  O1          0.24483      0.70723      0.50245  1.0000
  O3          0.31960      0.55652      0.83893  1.0000
  O1          0.48255      0.78447      0.16958  1.0000
  O1          0.30405      0.75994      0.31656  1.0000
  O1          0.46910      0.72345      0.98589  1.0000
  O1          0.26333      0.55017      0.64763  1.0000
  O1          0.72346      0.26340      0.81525  1.0000
  O1          0.55490      0.30326      0.48332  1.0000
  O1          0.76807      0.47545      0.15105  1.0000
  O3          0.77600      0.53982      0.03353  1.0000
  O3          0.48917      0.24972      0.36670  1.0000
  O1          0.78026      0.25672      0.70025  1.0000
  O3          0.24852      0.48413      0.53372  1.0000
  O3          0.52655      0.76985      0.86392  1.0000
  O3          0.25465      0.78105      0.19940  1.0000
  O3          0.55822      0.81858      0.30933  1.0000
  O3          0.27439      0.47140      0.97586  1.0000
  O3          0.20391      0.74667      0.64238  1.0000
  O3          0.46739      0.20336      0.81052  1.0000
  O3          0.74950      0.55807      0.47673  1.0000
  O3          0.82714      0.28081      0.14357  1.0000
  O3          0.22245      0.34651      0.89912  1.0000
  O3          0.68528      0.89036      0.23251  1.0000
  O3          0.13745      0.80422      0.56478  1.0000
  O3          0.80732      0.68111      0.39874  1.0000
  O3          0.34583      0.13349      0.73281  1.0000
  O3          0.89020      0.22214      0.06551  1.0000
  O3          0.33983      0.25021      0.43113  1.0000
  O3          0.92645      0.68971      0.09767  1.0000
  O1          0.77726      0.09415      0.76917  1.0000
  O1          0.68801      0.78544      0.93576  1.0000
  O3          0.09517      0.33400      0.59771  1.0000
  O3          0.25455      0.92631      0.26545  1.0000
  O1          0.57163      0.56869      0.99562  1.0000
  O1          0.46101      0.01531      0.32834  1.0000
  O1          0.00760      0.45296      0.66056  1.0000
  O1          0.45371      0.45900      0.49295  1.0000
  O1          0.56535      0.00745      0.82950  1.0000
  O1          0.02612      0.57859      0.15855  1.0000
  O1          0.59660      0.62191      0.33860  1.0000
  O1          0.03874      0.43222      0.00437  1.0000
  O1          0.40271      0.97961      0.67454  1.0000
  O1          0.43559      0.40733      0.84112  1.0000
  O1          0.98241      0.59220      0.50604  1.0000
  O1          0.62885      0.04702      0.17389  1.0000
  O1          0.59021      0.17628      0.25445  1.0000
  O1          0.85027      0.42222      0.58644  1.0000
  O1          0.60150      0.43593      0.92161  1.0000
  O1          0.44021      0.84905      0.75425  1.0000
  O1          0.17834      0.60359      0.08239  1.0000
  O1          0.42624      0.58714      0.41783  1.0000
  F           0.48443      0.93931      0.23980  1.0000
  F           0.08737      0.55403      0.57235  1.0000
  F           0.48065      0.55153      0.90838  1.0000
  F           0.55404      0.08863      0.73983  1.0000
  F           0.93946      0.47255      0.07198  1.0000
  F           0.55754      0.48027      0.40560  1.0000
