data_cif

_audit_creation_method             'generated by GULP'

_symmetry_space_group_name_H-M     'P 1'
_symmetry_Int_Tables_number        1
_symmetry_cell_setting             triclinic

_cell_length_a                       12.2936
_cell_length_b                       12.3038
_cell_length_c                       30.1298
_cell_angle_alpha                   89.9576
_cell_angle_beta                    90.4792
_cell_angle_gamma                  119.9771

loop_
_atom_site_label
_atom_site_fract_x
_atom_site_fract_y
_atom_site_fract_z
_atom_site_occupancy
  Ge          0.69960      0.37570      0.03389  1.0000
  Ge          0.63509      0.33010      0.36134  1.0000
  Ge          0.67521      0.30448      0.69447  1.0000
  Ge          0.31017      0.63691      0.52897  1.0000
  Ge          0.38798      0.67508      0.86739  1.0000
  Ge          0.32154      0.69397      0.19472  1.0000
  Ge          0.38356      0.69055      0.29934  1.0000
  Si          0.31800      0.63622      0.96519  1.0000
  Ge          0.30664      0.69968      0.63308  1.0000
  Ge          0.62698      0.30138      0.79937  1.0000
  Ge          0.70170      0.39331      0.46562  1.0000
  Ge          0.67708      0.30453      0.13404  1.0000
  Ge          0.53183      0.42797      0.96959  1.0000
  Ge          0.58411      0.10455      0.29916  1.0000
  Ge          0.89062      0.48097      0.63013  1.0000
  Ge          0.48560      0.59269      0.46473  1.0000
  Ge          0.42573      0.88773      0.80221  1.0000
  Ge          0.09279      0.51996      0.13232  1.0000
  Ge          0.43758      0.52142      0.36533  1.0000
  Ge          0.09781      0.58098      0.02732  1.0000
  Ge          0.48380      0.91669      0.70152  1.0000
  Ge          0.59120      0.48308      0.86407  1.0000
  Ge          0.92187      0.43813      0.53124  1.0000
  Ge          0.51174      0.08130      0.19970  1.0000
  Ge          0.30040      0.40276      0.84319  1.0000
  Ge          0.60562      0.89751      0.17753  1.0000
  Ge          0.10460      0.71513      0.50959  1.0000
  Ge          0.71464      0.61358      0.34401  1.0000
  Si          0.39501      0.10097      0.67661  1.0000
  Ge          0.88692      0.28976      0.01201  1.0000
  Ge          0.40912      0.30143      0.47624  1.0000
  Ge          0.87931      0.59676      0.14555  1.0000
  Si          0.71318      0.10471      0.81141  1.0000
  Ge          0.60010      0.71691      0.97908  1.0000
  Ge          0.10753      0.40677      0.64309  1.0000
  Ge          0.29248      0.89145      0.31079  1.0000
  Ge          0.24623      0.35256      0.94728  1.0000
  Si          0.66554      0.90753      0.28052  1.0000
  Si          0.08767      0.76032      0.61249  1.0000
  Si          0.76450      0.67385      0.44707  1.0000
  Ge          0.34019      0.08792      0.77963  1.0000
  Si          0.89400      0.23927      0.11454  1.0000
  Si          0.34528      0.24411      0.37410  1.0000
  Ge          0.89111      0.66097      0.04084  1.0000
  Ge          0.76356      0.09959      0.70925  1.0000
  Ge          0.67339      0.77014      0.87497  1.0000
  Si          0.10661      0.34610      0.54123  1.0000
  Si          0.23434      0.89597      0.20816  1.0000
  Si          0.97078      0.12577      0.96113  1.0000
  Si          0.89006      0.85958      0.29390  1.0000
  Si          0.15265      0.03601      0.62608  1.0000
  Si          0.03877      0.89581      0.45988  1.0000
  Si          0.12542      0.15452      0.79194  1.0000
  Si          0.85269      0.97018      0.12759  1.0000
  Si          0.12124      0.97104      0.35992  1.0000
  Si          0.84997      0.89314      0.02707  1.0000
  Si          0.04213      0.15809      0.69208  1.0000
  Si          0.89576      0.04358      0.86008  1.0000
  Si          0.16177      0.12613      0.52625  1.0000
  Si          0.96174      0.84912      0.19405  1.0000
  O2          0.92928      0.00764      0.99363  1.0000
  O2          0.00770      0.94553      0.32633  1.0000
  O2          0.07887      0.07968      0.65853  1.0000
  O2          0.07355      0.01265      0.49278  1.0000
  O2          0.01190      0.09435      0.82688  1.0000
  O2          0.93667      0.93690      0.16042  1.0000
  O1          0.34870      0.56791      0.33131  1.0000
  O1          0.42626      0.78124      0.66700  1.0000
  O3          0.23594      0.66824      0.99779  1.0000
  O1          0.67171      0.42450      0.83456  1.0000
  O1          0.55839      0.21813      0.16773  1.0000
  O1          0.78643      0.35239      0.49712  1.0000
  O1          0.56320      0.33662      0.00144  1.0000
  O1          0.76417      0.43825      0.66411  1.0000
  O1          0.67013      0.22957      0.33373  1.0000
  O1          0.44482      0.67448      0.50040  1.0000
  O1          0.22243      0.56088      0.16436  1.0000
  O1          0.34567      0.77346      0.83857  1.0000
  O3          0.11539      0.22417      0.97080  1.0000
  O2          0.78626      0.90223      0.30096  1.0000
  O2          0.09055      0.88622      0.63152  1.0000
  O2          0.89135      0.79507      0.46684  1.0000
  O3          0.20713      0.08829      0.79952  1.0000
  O2          0.89476      0.11676      0.13518  1.0000
  O2          0.22845      0.11591      0.35384  1.0000
  O3          0.89748      0.79583      0.01922  1.0000
  O3          0.89534      0.10563      0.68612  1.0000
  O3          0.81368      0.89553      0.85520  1.0000
  O2          0.11980      0.23064      0.52124  1.0000
  O2          0.10627      0.88499      0.18792  1.0000
  O2          0.93895      0.88236      0.24360  1.0000
  O2          0.13842      0.07210      0.57606  1.0000
  O2          0.94979      0.07992      0.91010  1.0000
  O2          0.06936      0.13096      0.74218  1.0000
  O2          0.87940      0.94606      0.07751  1.0000
  O2          0.06653      0.94604      0.40960  1.0000
  O3          0.88870      0.18985      0.97147  1.0000
  O3          0.82844      0.71535      0.30650  1.0000
  O2          0.29967      0.10497      0.63925  1.0000
  O3          0.11823      0.82993      0.47192  1.0000
  O3          0.20946      0.30173      0.80041  1.0000
  O3          0.70780      0.88769      0.13948  1.0000
  O3          0.18323      0.88724      0.34912  1.0000
  O3          0.70120      0.82450      0.01902  1.0000
  O3          0.11514      0.30504      0.68236  1.0000
  O2          0.80773      0.10464      0.84992  1.0000
  O3          0.30672      0.19071      0.51472  1.0000
  O3          0.87698      0.70282      0.18445  1.0000
  O1          0.34779      0.64491      0.24425  1.0000
  O1          0.35426      0.71410      0.57842  1.0000
  O3          0.30036      0.66682      0.91501  1.0000
  O1          0.65318      0.35246      0.74518  1.0000
  O1          0.62222      0.29182      0.08056  1.0000
  O1          0.71383      0.36298      0.41051  1.0000
  O1          0.37193      0.33491      0.95709  1.0000
  O3          0.68465      0.04335      0.29118  1.0000
  O3          0.95179      0.64311      0.62274  1.0000
  O3          0.64760      0.69314      0.45738  1.0000
  O1          0.32389      0.94766      0.79218  1.0000
  O3          0.03050      0.36007      0.12230  1.0000
  O3          0.34090      0.35965      0.35204  1.0000
  O1          0.01583      0.65742      0.01663  1.0000
  O1          0.63997      0.97232      0.68584  1.0000
  O1          0.66981      0.64059      0.85180  1.0000
  O3          0.98788      0.34241      0.51790  1.0000
  O3          0.34960      0.01526      0.18630  1.0000
  O1          0.75928      0.30250      0.99968  1.0000
  O1          0.69433      0.46791      0.33190  1.0000
  O3          0.53231      0.21850      0.66639  1.0000
  O1          0.23106      0.69569      0.49903  1.0000
  O1          0.31575      0.54484      0.83152  1.0000
  O1          0.46003      0.76994      0.16591  1.0000
  O1          0.28595      0.75049      0.31307  1.0000
  O3          0.46469      0.72741      0.97870  1.0000
  O1          0.24742      0.54099      0.64508  1.0000
  O3          0.72632      0.24140      0.81020  1.0000
  O1          0.54352      0.29516      0.47828  1.0000
  O1          0.73801      0.46349      0.14834  1.0000
  O1          0.75120      0.53760      0.02388  1.0000
  O3          0.47131      0.24147      0.36173  1.0000
  O1          0.76915      0.23732      0.69436  1.0000
  O3          0.23568      0.47334      0.53027  1.0000
  O1          0.54963      0.78438      0.85714  1.0000
  O3          0.23120      0.76722      0.19482  1.0000
  O3          0.53977      0.80888      0.30520  1.0000
  O3          0.26882      0.48803      0.97306  1.0000
  O3          0.18613      0.73433      0.63858  1.0000
  O1          0.47041      0.20047      0.80763  1.0000
  O3          0.73797      0.54890      0.47258  1.0000
  O3          0.79514      0.26413      0.13975  1.0000
  O1          0.21568      0.34517      0.89145  1.0000
  O3          0.66472      0.88041      0.22830  1.0000
  O3          0.11745      0.78772      0.56064  1.0000
  O3          0.79018      0.67170      0.39500  1.0000
  O3          0.34389      0.12083      0.72355  1.0000
  O3          0.86625      0.21167      0.06232  1.0000
  O3          0.32581      0.24219      0.42705  1.0000
  O1          0.90719      0.68177      0.09751  1.0000
  O3          0.76741      0.07967      0.76645  1.0000
  O1          0.68822      0.77443      0.93205  1.0000
  O3          0.08383      0.32396      0.59396  1.0000
  O3          0.23287      0.91270      0.26126  1.0000
  O1          0.55675      0.56745      0.99320  1.0000
  O1          0.44193      0.00527      0.32413  1.0000
  O1          0.99051      0.43818      0.65571  1.0000
  O1          0.44180      0.44967      0.48944  1.0000
  O3          0.57150      0.00610      0.82334  1.0000
  O1          0.99163      0.55695      0.15814  1.0000
  O1          0.57779      0.61310      0.33527  1.0000
  O1          0.02619      0.42913      0.00784  1.0000
  O3          0.39157      0.97036      0.67199  1.0000
  O1          0.44030      0.40213      0.84280  1.0000
  O1          0.96950      0.57812      0.50040  1.0000
  O1          0.60261      0.03229      0.16917  1.0000
  O1          0.56654      0.16245      0.24983  1.0000
  O1          0.83532      0.40814      0.58017  1.0000
  O1          0.60899      0.46278      0.91900  1.0000
  O1          0.43945      0.83429      0.75120  1.0000
  O1          0.13969      0.59668      0.08231  1.0000
  O1          0.41128      0.57796      0.41496  1.0000
  F           0.46124      0.92533      0.23520  1.0000
  F           0.07206      0.54060      0.56793  1.0000
  F           0.45166      0.58151      0.90175  1.0000
  F           0.54584      0.07363      0.73622  1.0000
  F           0.86106      0.44487      0.06870  1.0000
  F           0.54144      0.47111      0.40161  1.0000
