data_cif

_audit_creation_method             'generated by GULP'

_symmetry_space_group_name_H-M     'P 1'
_symmetry_Int_Tables_number        1
_symmetry_cell_setting             triclinic

_cell_length_a                       12.2731
_cell_length_b                       12.3073
_cell_length_c                       30.1189
_cell_angle_alpha                   90.1401
_cell_angle_beta                    90.2570
_cell_angle_gamma                  120.0460

loop_
_atom_site_label
_atom_site_fract_x
_atom_site_fract_y
_atom_site_fract_z
_atom_site_occupancy
  Ge          0.69960      0.37570      0.03389  1.0000
  Ge          0.64051      0.33250      0.36233  1.0000
  Ge          0.68211      0.32419      0.69586  1.0000
  Ge          0.31176      0.64493      0.52613  1.0000
  Ge          0.37736      0.69002      0.85925  1.0000
  Ge          0.32746      0.70060      0.19190  1.0000
  Ge          0.38544      0.69086      0.29660  1.0000
  Si          0.32011      0.63480      0.96158  1.0000
  Ge          0.31871      0.71138      0.63078  1.0000
  Ge          0.61906      0.31916      0.80000  1.0000
  Ge          0.70137      0.40026      0.46669  1.0000
  Ge          0.68594      0.30927      0.13434  1.0000
  Ge          0.53121      0.42507      0.96952  1.0000
  Ge          0.58916      0.10614      0.30059  1.0000
  Ge          0.90355      0.49893      0.63246  1.0000
  Ge          0.48481      0.59801      0.46111  1.0000
  Ge          0.41804      0.90668      0.79554  1.0000
  Ge          0.10136      0.52625      0.12798  1.0000
  Ge          0.44035      0.52220      0.36206  1.0000
  Ge          0.09873      0.58238      0.02291  1.0000
  Ge          0.48994      0.93430      0.69655  1.0000
  Ge          0.57441      0.49102      0.86802  1.0000
  Ge          0.92284      0.44999      0.53307  1.0000
  Ge          0.52060      0.08836      0.20093  1.0000
  Ge          0.29801      0.40575      0.84160  1.0000
  Ge          0.61363      0.90500      0.17688  1.0000
  Ge          0.10707      0.72610      0.51004  1.0000
  Ge          0.71941      0.61468      0.34240  1.0000
  Ge          0.39834      0.12025      0.67551  1.0000
  Ge          0.88662      0.29038      0.00980  1.0000
  Ge          0.40738      0.30723      0.47516  1.0000
  Ge          0.88775      0.60276      0.14321  1.0000
  Ge          0.71155      0.11898      0.80844  1.0000
  Ge          0.60153      0.71617      0.97814  1.0000
  Ge          0.11765      0.41993      0.64283  1.0000
  Ge          0.29612      0.89232      0.31020  1.0000
  Ge          0.24696      0.35098      0.94592  1.0000
  Si          0.66935      0.90884      0.27995  1.0000
  Si          0.10115      0.77684      0.61306  1.0000
  Si          0.76491      0.67959      0.44523  1.0000
  Si          0.33770      0.10420      0.77825  1.0000
  Si          0.90226      0.24461      0.11230  1.0000
  Si          0.34903      0.24571      0.37289  1.0000
  Ge          0.89236      0.66213      0.03849  1.0000
  Si          0.76790      0.11894      0.70645  1.0000
  Ge          0.66996      0.77267      0.87466  1.0000
  Si          0.10701      0.35595      0.54034  1.0000
  Si          0.24202      0.90324      0.20751  1.0000
  Si          0.96866      0.12510      0.95901  1.0000
  Si          0.89403      0.86072      0.29239  1.0000
  Si          0.15145      0.05023      0.62466  1.0000
  Si          0.03855      0.90270      0.45856  1.0000
  Si          0.12101      0.16245      0.79010  1.0000
  Si          0.86013      0.97559      0.12593  1.0000
  Si          0.12448      0.97250      0.35854  1.0000
  Si          0.85039      0.89383      0.02549  1.0000
  Si          0.04094      0.16902      0.69075  1.0000
  Si          0.89236      0.04999      0.85786  1.0000
  Si          0.15713      0.13324      0.52466  1.0000
  Si          0.96902      0.85504      0.19242  1.0000
  O2          0.92799      0.00748      0.99161  1.0000
  O2          0.01224      0.94754      0.32448  1.0000
  O2          0.06543      0.08298      0.65621  1.0000
  O2          0.07102      0.02161      0.49017  1.0000
  O2          0.00750      0.08724      0.82430  1.0000
  O2          0.94421      0.94247      0.15865  1.0000
  O1          0.35114      0.56598      0.32714  1.0000
  O1          0.44358      0.79987      0.66233  1.0000
  O3          0.23461      0.66924      0.99144  1.0000
  O1          0.65810      0.43536      0.83546  1.0000
  O1          0.57037      0.22697      0.16985  1.0000
  O1          0.78492      0.36277      0.50012  1.0000
  O1          0.56006      0.33625      0.00391  1.0000
  O1          0.78195      0.46031      0.66832  1.0000
  O1          0.67508      0.22954      0.33595  1.0000
  O1          0.44398      0.68195      0.49583  1.0000
  O1          0.23211      0.57002      0.15975  1.0000
  O1          0.33398      0.78347      0.83094  1.0000
  O3          0.11288      0.22464      0.96898  1.0000
  O2          0.78888      0.90138      0.30038  1.0000
  O2          0.10829      0.90408      0.63277  1.0000
  O2          0.89086      0.80154      0.46523  1.0000
  O2          0.21733      0.11032      0.79792  1.0000
  O2          0.90482      0.12304      0.13280  1.0000
  O2          0.23370      0.11670      0.35238  1.0000
  O3          0.89649      0.79561      0.01674  1.0000
  O2          0.89550      0.13197      0.68525  1.0000
  O3          0.79727      0.90376      0.85133  1.0000
  O2          0.11569      0.23810      0.51993  1.0000
  O2          0.11495      0.89423      0.18714  1.0000
  O2          0.94202      0.88537      0.24192  1.0000
  O2          0.12892      0.07476      0.57390  1.0000
  O2          0.94752      0.07770      0.90807  1.0000
  O2          0.06676      0.13624      0.74007  1.0000
  O2          0.88355      0.94784      0.07577  1.0000
  O2          0.06796      0.94950      0.40796  1.0000
  O3          0.88525      0.18812      0.96940  1.0000
  O3          0.83389      0.71640      0.30482  1.0000
  O3          0.29632      0.13315      0.63762  1.0000
  O3          0.11924      0.83950      0.47219  1.0000
  O3          0.19217      0.30874      0.80028  1.0000
  O3          0.71531      0.89495      0.13850  1.0000
  O3          0.18548      0.88725      0.34837  1.0000
  O3          0.70065      0.82450      0.01844  1.0000
  O3          0.12457      0.31526      0.68088  1.0000
  O3          0.81954      0.12457      0.84804  1.0000
  O3          0.30332      0.19870      0.51399  1.0000
  O3          0.88621      0.70884      0.18235  1.0000
  O1          0.35043      0.64835      0.24124  1.0000
  O1          0.36123      0.72123      0.57567  1.0000
  O3          0.30210      0.65725      0.91007  1.0000
  O1          0.64951      0.36822      0.74530  1.0000
  O1          0.62726      0.29266      0.08137  1.0000
  O1          0.71643      0.36659      0.41208  1.0000
  O1          0.36890      0.33014      0.95825  1.0000
  O3          0.68912      0.04430      0.29193  1.0000
  O3          0.96502      0.66064      0.62418  1.0000
  O3          0.64727      0.69900      0.45403  1.0000
  O3          0.31648      0.96688      0.78753  1.0000
  O3          0.03948      0.36611      0.11870  1.0000
  O3          0.34460      0.35976      0.34973  1.0000
  O1          0.01692      0.65918      0.01331  1.0000
  O3          0.65195      0.00095      0.68329  1.0000
  O1          0.67307      0.64762      0.85241  1.0000
  O3          0.98621      0.35229      0.51901  1.0000
  O3          0.35873      0.02381      0.18675  1.0000
  O1          0.75746      0.30167      0.99896  1.0000
  O1          0.70165      0.46905      0.33206  1.0000
  O1          0.54470      0.24696      0.66527  1.0000
  O1          0.23183      0.70498      0.49767  1.0000
  O1          0.32003      0.55227      0.82976  1.0000
  O1          0.46787      0.77888      0.16410  1.0000
  O1          0.28818      0.75059      0.31142  1.0000
  O3          0.46554      0.72681      0.97487  1.0000
  O1          0.25938      0.55404      0.64459  1.0000
  O1          0.71962      0.25998      0.81034  1.0000
  O1          0.54237      0.30187      0.47881  1.0000
  O1          0.74698      0.46919      0.14732  1.0000
  O1          0.75182      0.53746      0.02302  1.0000
  O3          0.47628      0.24358      0.36180  1.0000
  O3          0.77075      0.24895      0.69629  1.0000
  O3          0.23570      0.48136      0.52716  1.0000
  O1          0.53879      0.78103      0.85954  1.0000
  O3          0.23827      0.77488      0.19294  1.0000
  O3          0.54190      0.80861      0.30357  1.0000
  O3          0.27313      0.48919      0.97121  1.0000
  O3          0.20030      0.74906      0.63771  1.0000
  O3          0.46308      0.19877      0.80491  1.0000
  O3          0.73699      0.55593      0.47185  1.0000
  O3          0.80540      0.27033      0.13883  1.0000
  O1          0.21569      0.34691      0.89028  1.0000
  O3          0.67085      0.88508      0.22751  1.0000
  O3          0.12685      0.80234      0.56085  1.0000
  O3          0.79334      0.67533      0.39345  1.0000
  O3          0.34006      0.13566      0.72644  1.0000
  O3          0.87061      0.21485      0.06038  1.0000
  O3          0.32671      0.24535      0.42569  1.0000
  O1          0.91285      0.68612      0.09501  1.0000
  O3          0.76980      0.09538      0.75913  1.0000
  O1          0.69048      0.77864      0.93141  1.0000
  O3          0.09232      0.33763      0.59345  1.0000
  O3          0.23838      0.91621      0.26076  1.0000
  O1          0.56007      0.56819      0.99253  1.0000
  O1          0.44552      0.00487      0.32460  1.0000
  O1          0.00438      0.45558      0.65665  1.0000
  O1          0.43965      0.45617      0.48694  1.0000
  O1          0.56196      0.00391      0.82093  1.0000
  O1          0.00214      0.56489      0.15458  1.0000
  O1          0.58183      0.61200      0.33232  1.0000
  O1          0.02581      0.43001      0.00390  1.0000
  O1          0.39878      0.98440      0.66623  1.0000
  O1          0.43331      0.40058      0.83720  1.0000
  O1          0.96971      0.58957      0.50229  1.0000
  O1          0.61260      0.04104      0.16977  1.0000
  O1          0.57337      0.16678      0.25168  1.0000
  O1          0.84194      0.42341      0.58313  1.0000
  O1          0.60496      0.44701      0.91906  1.0000
  O1          0.43349      0.84874      0.74577  1.0000
  O1          0.14611      0.60004      0.07736  1.0000
  O1          0.41206      0.58098      0.41093  1.0000
  F           0.46790      0.93064      0.23489  1.0000
  F           0.07849      0.55334      0.56802  1.0000
  F           0.47219      0.55295      0.90093  1.0000
  F           0.53983      0.08574      0.73377  1.0000
  F           0.86565      0.44779      0.06683  1.0000
  F           0.54368      0.47429      0.40002  1.0000
