data_cif

_audit_creation_method             'generated by GULP'

_symmetry_space_group_name_H-M     'P 1'
_symmetry_Int_Tables_number        1
_symmetry_cell_setting             triclinic

_cell_length_a                       12.2880
_cell_length_b                       12.3070
_cell_length_c                       30.1393
_cell_angle_alpha                   90.5597
_cell_angle_beta                    89.8330
_cell_angle_gamma                  119.9983

loop_
_atom_site_label
_atom_site_fract_x
_atom_site_fract_y
_atom_site_fract_z
_atom_site_occupancy
  Ge          0.69960      0.37570      0.03389  1.0000
  Ge          0.62712      0.29473      0.36229  1.0000
  Ge          0.68072      0.29791      0.69843  1.0000
  Ge          0.32285      0.61205      0.52488  1.0000
  Ge          0.38972      0.69359      0.86001  1.0000
  Ge          0.31397      0.68540      0.19151  1.0000
  Ge          0.37197      0.67800      0.29583  1.0000
  Ge          0.33448      0.62775      0.96019  1.0000
  Ge          0.30070      0.66482      0.62479  1.0000
  Ge          0.62899      0.29426      0.80323  1.0000
  Ge          0.68407      0.36562      0.46689  1.0000
  Ge          0.70774      0.31998      0.13721  1.0000
  Ge          0.51952      0.41750      0.97060  1.0000
  Ge          0.57271      0.06721      0.29861  1.0000
  Ge          0.90251      0.47515      0.63474  1.0000
  Ge          0.49076      0.55895      0.45752  1.0000
  Ge          0.43498      0.90882      0.79115  1.0000
  Ge          0.09368      0.51301      0.12461  1.0000
  Ge          0.42394      0.50596      0.35785  1.0000
  Ge          0.11462      0.57739      0.02383  1.0000
  Ge          0.46855      0.88278      0.68998  1.0000
  Ge          0.58280      0.47236      0.86592  1.0000
  Ge          0.90860      0.41517      0.52994  1.0000
  Ge          0.53036      0.09849      0.19993  1.0000
  Ge          0.29418      0.39977      0.85066  1.0000
  Ge          0.60834      0.88588      0.18438  1.0000
  Ge          0.12162      0.70447      0.51533  1.0000
  Ge          0.71734      0.58505      0.34848  1.0000
  Si          0.39937      0.10082      0.68307  1.0000
  Ge          0.89579      0.28409      0.01868  1.0000
  Ge          0.39834      0.28363      0.48145  1.0000
  Ge          0.91171      0.60583      0.15006  1.0000
  Si          0.70752      0.09190      0.81839  1.0000
  Ge          0.60653      0.70974      0.98497  1.0000
  Ge          0.11342      0.39407      0.64992  1.0000
  Ge          0.29323      0.88156      0.31716  1.0000
  Ge          0.23574      0.33999      0.95472  1.0000
  Si          0.66355      0.88164      0.28659  1.0000
  Ge          0.10991      0.76012      0.62000  1.0000
  Si          0.76954      0.65292      0.45125  1.0000
  Ge          0.33751      0.09117      0.78532  1.0000
  Si          0.91100      0.23511      0.12058  1.0000
  Si          0.34364      0.22878      0.37848  1.0000
  Si          0.91441      0.65795      0.04724  1.0000
  Ge          0.75397      0.08392      0.71519  1.0000
  Si          0.66849      0.75405      0.88256  1.0000
  Si          0.10594      0.33200      0.54740  1.0000
  Si          0.25039      0.90173      0.21456  1.0000
  Si          0.96313      0.10569      0.96873  1.0000
  Si          0.88950      0.83578      0.30080  1.0000
  Si          0.15564      0.03229      0.63434  1.0000
  Si          0.04252      0.87653      0.46676  1.0000
  Si          0.11564      0.14872      0.80113  1.0000
  Si          0.85956      0.96226      0.13466  1.0000
  Si          0.11891      0.95582      0.36698  1.0000
  Si          0.85820      0.87667      0.03498  1.0000
  Si          0.03526      0.14643      0.70097  1.0000
  Si          0.88375      0.02542      0.86778  1.0000
  Si          0.15333      0.10762      0.53339  1.0000
  Si          0.97775      0.85182      0.20102  1.0000
  O2          0.93224      0.98679      0.99933  1.0000
  O2          0.00050      0.92322      0.33515  1.0000
  O2          0.08297      0.07919      0.66626  1.0000
  O2          0.06847      0.98824      0.50146  1.0000
  O2          0.99844      0.06830      0.83381  1.0000
  O2          0.94496      0.93530      0.16852  1.0000
  O1          0.33800      0.54136      0.32232  1.0000
  O1          0.44043      0.76852      0.65395  1.0000
  O1          0.23215      0.66606      0.98951  1.0000
  O1          0.67074      0.42574      0.83584  1.0000
  O1          0.57435      0.22587      0.16662  1.0000
  O1          0.77904      0.32873      0.49791  1.0000
  O1          0.57164      0.33549      0.00171  1.0000
  O1          0.76551      0.42329      0.66498  1.0000
  O1          0.66180      0.20117      0.33315  1.0000
  O1          0.43896      0.64628      0.48930  1.0000
  O1          0.23354      0.56675      0.15690  1.0000
  O1          0.35582      0.77078      0.82314  1.0000
  O3          0.10694      0.20691      0.97676  1.0000
  O2          0.77837      0.86829      0.30722  1.0000
  O3          0.09657      0.88612      0.64097  1.0000
  O2          0.89596      0.77182      0.47153  1.0000
  O3          0.21014      0.09687      0.80763  1.0000
  O2          0.90275      0.10888      0.14049  1.0000
  O2          0.22393      0.10112      0.35854  1.0000
  O2          0.90728      0.77805      0.02788  1.0000
  O3          0.88796      0.08722      0.69386  1.0000
  O2          0.79421      0.87522      0.86274  1.0000
  O2          0.10515      0.20770      0.52739  1.0000
  O2          0.12563      0.89909      0.19459  1.0000
  O2          0.94678      0.87102      0.25147  1.0000
  O2          0.13701      0.06106      0.58376  1.0000
  O2          0.93913      0.06255      0.91714  1.0000
  O2          0.06369      0.12167      0.75079  1.0000
  O2          0.88728      0.93385      0.08472  1.0000
  O2          0.07162      0.93522      0.41763  1.0000
  O3          0.88058      0.16924      0.98048  1.0000
  O3          0.82921      0.68968      0.31058  1.0000
  O2          0.30552      0.10179      0.64485  1.0000
  O3          0.12331      0.81085      0.47614  1.0000
  O3          0.18792      0.29586      0.81067  1.0000
  O3          0.71366      0.88222      0.14553  1.0000
  O3          0.17854      0.87062      0.35467  1.0000
  O3          0.71146      0.81033      0.02526  1.0000
  O3          0.10723      0.29326      0.69129  1.0000
  O2          0.80451      0.09382      0.85600  1.0000
  O3          0.29700      0.17242      0.51967  1.0000
  O3          0.89895      0.70735      0.18813  1.0000
  O1          0.29763      0.63581      0.24599  1.0000
  O1          0.37746      0.65341      0.57819  1.0000
  O1          0.34946      0.71278      0.91300  1.0000
  O1          0.70039      0.34721      0.75300  1.0000
  O1          0.65576      0.34882      0.08839  1.0000
  O1          0.66051      0.28921      0.41764  1.0000
  O1          0.36148      0.34177      0.98066  1.0000
  O3          0.66709      0.99952      0.31052  1.0000
  O1          0.98447      0.63341      0.64480  1.0000
  O3          0.65218      0.65738      0.47162  1.0000
  O1          0.33335      0.96367      0.80756  1.0000
  O3          0.03101      0.35373      0.14120  1.0000
  O3          0.32427      0.34452      0.36675  1.0000
  O3          0.04693      0.67362      0.03546  1.0000
  O1          0.63046      0.94473      0.70152  1.0000
  O3          0.68304      0.63228      0.87543  1.0000
  O3          0.96930      0.31651      0.53999  1.0000
  O3          0.36826      0.03859      0.20629  1.0000
  O1          0.75193      0.27398      0.01980  1.0000
  O1          0.72455      0.45069      0.34707  1.0000
  O3          0.52289      0.23797      0.68543  1.0000
  O1          0.26226      0.71132      0.51201  1.0000
  O1          0.28770      0.53305      0.84807  1.0000
  O1          0.47376      0.74614      0.18024  1.0000
  O1          0.30952      0.75274      0.32652  1.0000
  O1          0.46664      0.70072      0.99545  1.0000
  O1          0.24242      0.53488      0.66049  1.0000
  O3          0.68788      0.20967      0.82995  1.0000
  O1          0.54404      0.30503      0.49488  1.0000
  O1          0.78988      0.46055      0.16501  1.0000
  O3          0.80707      0.53175      0.02337  1.0000
  O3          0.47091      0.25547      0.35453  1.0000
  O1          0.73881      0.19943      0.68913  1.0000
  O3          0.20397      0.45338      0.52098  1.0000
  O3          0.54691      0.72964      0.85569  1.0000
  O3          0.27914      0.80625      0.18766  1.0000
  O3          0.53604      0.75249      0.29688  1.0000
  O1          0.22188      0.46595      0.96964  1.0000
  O1          0.24900      0.77585      0.63626  1.0000
  O1          0.46815      0.22827      0.80281  1.0000
  O3          0.77323      0.52900      0.46631  1.0000
  O3          0.78135      0.23032      0.13416  1.0000
  O1          0.23518      0.31474      0.89840  1.0000
  O3          0.68762      0.90461      0.23395  1.0000
  O1          0.09328      0.76249      0.56331  1.0000
  O3          0.77448      0.66718      0.39800  1.0000
  O3          0.31872      0.07516      0.72789  1.0000
  O3          0.92667      0.23092      0.06739  1.0000
  O3          0.34297      0.20516      0.43088  1.0000
  O3          0.88763      0.65834      0.09957  1.0000
  O3          0.78090      0.11392      0.77169  1.0000
  O3          0.66682      0.78407      0.93441  1.0000
  O3          0.13325      0.33451      0.59961  1.0000
  O3          0.22049      0.86928      0.26620  1.0000
  O1          0.60213      0.56905      0.99063  1.0000
  O1          0.43071      0.01550      0.32807  1.0000
  O1          0.97476      0.39599      0.65434  1.0000
  O1          0.39784      0.42012      0.48841  1.0000
  O3          0.57943      0.96196      0.82149  1.0000
  O1          0.05061      0.60937      0.15583  1.0000
  O1          0.56824      0.54803      0.33420  1.0000
  O1          0.00146      0.43144      0.00241  1.0000
  O3          0.44350      0.00316      0.67001  1.0000
  O1          0.44603      0.43604      0.83877  1.0000
  O1          0.00926      0.55176      0.50346  1.0000
  O1          0.57624      0.00279      0.17324  1.0000
  O1          0.60216      0.15409      0.25008  1.0000
  O1          0.86059      0.44579      0.57989  1.0000
  O1          0.54887      0.39830      0.91623  1.0000
  O1          0.39844      0.83023      0.74048  1.0000
  O1          0.16955      0.55812      0.07397  1.0000
  O1          0.43877      0.58345      0.40682  1.0000
  F           0.46948      0.91614      0.25977  1.0000
  F           0.13981      0.57311      0.59180  1.0000
  F           0.42761      0.55362      0.92771  1.0000
  F           0.53224      0.06960      0.75873  1.0000
  F           0.93287      0.45645      0.09279  1.0000
  F           0.54480      0.45371      0.42382  1.0000
