data_cif

_audit_creation_method             'generated by GULP'

_symmetry_space_group_name_H-M     'P 1'
_symmetry_Int_Tables_number        1
_symmetry_cell_setting             triclinic

_cell_length_a                       12.2671
_cell_length_b                       12.3099
_cell_length_c                       30.1294
_cell_angle_alpha                   89.5751
_cell_angle_beta                    90.7947
_cell_angle_gamma                  119.9423

loop_
_atom_site_label
_atom_site_fract_x
_atom_site_fract_y
_atom_site_fract_z
_atom_site_occupancy
  Ge          0.69960      0.37570      0.03389  1.0000
  Ge          0.63759      0.32143      0.36163  1.0000
  Ge          0.67530      0.29401      0.70036  1.0000
  Ge          0.30486      0.62227      0.52384  1.0000
  Ge          0.38946      0.67695      0.86277  1.0000
  Ge          0.32290      0.69451      0.19147  1.0000
  Ge          0.38183      0.68225      0.29599  1.0000
  Ge          0.31292      0.63670      0.96117  1.0000
  Ge          0.31058      0.68501      0.62764  1.0000
  Ge          0.64048      0.31243      0.80026  1.0000
  Ge          0.70114      0.38637      0.46583  1.0000
  Ge          0.67532      0.30288      0.13329  1.0000
  Ge          0.53132      0.43710      0.97203  1.0000
  Ge          0.58412      0.09637      0.29965  1.0000
  Ge          0.88557      0.46432      0.63393  1.0000
  Ge          0.48293      0.58244      0.45991  1.0000
  Ge          0.44067      0.89550      0.79735  1.0000
  Ge          0.09233      0.52333      0.12894  1.0000
  Ge          0.43642      0.51062      0.36087  1.0000
  Ge          0.08652      0.58352      0.02443  1.0000
  Ge          0.49209      0.90523      0.69224  1.0000
  Ge          0.59612      0.48427      0.86656  1.0000
  Ge          0.91858      0.42860      0.53343  1.0000
  Ge          0.51332      0.08071      0.20004  1.0000
  Ge          0.30467      0.40117      0.84511  1.0000
  Ge          0.60788      0.89880      0.17597  1.0000
  Ge          0.09973      0.70348      0.50732  1.0000
  Ge          0.71535      0.60329      0.34185  1.0000
  Si          0.40558      0.10833      0.67555  1.0000
  Ge          0.88382      0.28890      0.00970  1.0000
  Ge          0.40639      0.29248      0.47397  1.0000
  Ge          0.87615      0.59676      0.14133  1.0000
  Si          0.72558      0.11457      0.81007  1.0000
  Ge          0.60152      0.72659      0.97844  1.0000
  Ge          0.11171      0.39905      0.64243  1.0000
  Ge          0.29139      0.88270      0.30961  1.0000
  Si          0.24782      0.35369      0.94741  1.0000
  Si          0.66482      0.89990      0.27907  1.0000
  Ge          0.08906      0.74995      0.61192  1.0000
  Si          0.76284      0.66592      0.44464  1.0000
  Ge          0.35391      0.09754      0.77799  1.0000
  Si          0.89462      0.24166      0.11256  1.0000
  Si          0.34600      0.23416      0.37192  1.0000
  Si          0.88156      0.66037      0.03816  1.0000
  Ge          0.77756      0.11032      0.70740  1.0000
  Ge          0.67431      0.77117      0.87414  1.0000
  Si          0.10303      0.33416      0.54068  1.0000
  Si          0.23525      0.89489      0.20699  1.0000
  Si          0.97676      0.12762      0.96025  1.0000
  Si          0.88922      0.85051      0.29209  1.0000
  Si          0.15620      0.02951      0.62584  1.0000
  Si          0.03690      0.88690      0.45781  1.0000
  Si          0.13301      0.15235      0.79315  1.0000
  Si          0.85617      0.97438      0.12630  1.0000
  Si          0.12078      0.96203      0.35820  1.0000
  Si          0.85273      0.89783      0.02635  1.0000
  Si          0.05100      0.15502      0.69272  1.0000
  Si          0.90070      0.04186      0.85966  1.0000
  Si          0.15965      0.11566      0.52528  1.0000
  Si          0.96256      0.84874      0.19173  1.0000
  O2          0.94318      0.01140      0.99364  1.0000
  O2          0.00729      0.93682      0.32437  1.0000
  O2          0.09175      0.08302      0.65841  1.0000
  O2          0.07331      0.00143      0.49181  1.0000
  O2          0.01835      0.08767      0.82741  1.0000
  O2          0.94025      0.94188      0.15968  1.0000
  O1          0.34724      0.55619      0.32627  1.0000
  O1          0.44063      0.77456      0.65937  1.0000
  O1          0.21966      0.66931      0.99370  1.0000
  O1          0.67889      0.42605      0.83933  1.0000
  O1          0.56079      0.21947      0.16884  1.0000
  O1          0.78086      0.34418      0.49954  1.0000
  O1          0.56087      0.34375      0.00378  1.0000
  O1          0.76430      0.42819      0.66743  1.0000
  O1          0.67113      0.21882      0.33496  1.0000
  O1          0.43874      0.66280      0.49481  1.0000
  O1          0.22383      0.56411      0.16015  1.0000
  O1          0.35182      0.77183      0.82876  1.0000
  O2          0.12358      0.23111      0.96774  1.0000
  O2          0.78454      0.89187      0.29952  1.0000
  O3          0.08916      0.88272      0.63313  1.0000
  O2          0.88836      0.78822      0.46453  1.0000
  O3          0.21907      0.09044      0.79996  1.0000
  O2          0.89798      0.12049      0.13361  1.0000
  O2          0.23023      0.10581      0.35140  1.0000
  O2          0.88450      0.78635      0.01938  1.0000
  O3          0.90336      0.09962      0.68658  1.0000
  O3          0.81598      0.89483      0.85434  1.0000
  O2          0.11234      0.21664      0.52090  1.0000
  O2          0.10728      0.88459      0.18643  1.0000
  O2          0.93690      0.87438      0.24174  1.0000
  O2          0.13956      0.06195      0.57514  1.0000
  O2          0.95168      0.07686      0.91009  1.0000
  O2          0.07953      0.12952      0.74292  1.0000
  O2          0.88456      0.95048      0.07648  1.0000
  O2          0.06627      0.94072      0.40785  1.0000
  O3          0.89173      0.18800      0.97109  1.0000
  O3          0.82930      0.70619      0.30449  1.0000
  O2          0.30520      0.09414      0.63683  1.0000
  O3          0.11222      0.81562      0.46815  1.0000
  O3          0.21184      0.29886      0.80312  1.0000
  O3          0.71070      0.89164      0.13770  1.0000
  O3          0.18155      0.87679      0.34797  1.0000
  O3          0.70614      0.83968      0.01665  1.0000
  O3          0.12174      0.30227      0.68310  1.0000
  O2          0.81741      0.10765      0.84837  1.0000
  O3          0.30432      0.18344      0.51296  1.0000
  O3          0.87588      0.70481      0.17915  1.0000
  O1          0.34738      0.64128      0.24060  1.0000
  O1          0.35282      0.70334      0.57287  1.0000
  O1          0.30080      0.67672      0.90784  1.0000
  O1          0.67829      0.37593      0.74824  1.0000
  O1          0.61854      0.28891      0.08012  1.0000
  O1          0.71616      0.35572      0.41096  1.0000
  O3          0.36920      0.34367      0.95827  1.0000
  O3          0.68423      0.03490      0.29093  1.0000
  O1          0.94727      0.62614      0.62391  1.0000
  O3          0.64479      0.68472      0.45364  1.0000
  O1          0.34153      0.95687      0.78697  1.0000
  O3          0.03055      0.36356      0.11978  1.0000
  O3          0.34163      0.34873      0.34857  1.0000
  O3          0.99878      0.65740      0.01575  1.0000
  O1          0.64986      0.98821      0.68172  1.0000
  O1          0.67061      0.64071      0.85251  1.0000
  O3          0.98506      0.33461      0.51826  1.0000
  O3          0.35109      0.01615      0.18629  1.0000
  O1          0.75267      0.29814      0.99846  1.0000
  O1          0.69749      0.45819      0.33123  1.0000
  O3          0.53747      0.22869      0.66533  1.0000
  O1          0.22136      0.67716      0.49445  1.0000
  O1          0.31855      0.54091      0.83019  1.0000
  O1          0.46219      0.77236      0.16325  1.0000
  O1          0.28435      0.74131      0.31078  1.0000
  O1          0.46696      0.73625      0.97867  1.0000
  O1          0.25714      0.53081      0.64153  1.0000
  O3          0.73944      0.25056      0.81278  1.0000
  O1          0.54132      0.28734      0.47675  1.0000
  O1          0.73662      0.46316      0.14613  1.0000
  O3          0.75203      0.54136      0.02320  1.0000
  O3          0.47333      0.23228      0.36117  1.0000
  O1          0.79088      0.24813      0.69073  1.0000
  O3          0.23292      0.45978      0.52872  1.0000
  O1          0.55251      0.78651      0.85378  1.0000
  O3          0.23244      0.76755      0.19239  1.0000
  O3          0.53826      0.79946      0.30297  1.0000
  O3          0.25939      0.47728      0.96971  1.0000
  O1          0.20448      0.73305      0.63874  1.0000
  O1          0.48079      0.21224      0.80612  1.0000
  O3          0.73554      0.54177      0.47109  1.0000
  O3          0.79507      0.26396      0.13829  1.0000
  O3          0.22262      0.34889      0.89455  1.0000
  O3          0.66541      0.87735      0.22660  1.0000
  O1          0.12089      0.78267      0.55660  1.0000
  O3          0.79029      0.66322      0.39284  1.0000
  O3          0.35152      0.12800      0.72178  1.0000
  O3          0.86677      0.21267      0.06042  1.0000
  O3          0.32363      0.23284      0.42461  1.0000
  O3          0.89910      0.67615      0.09148  1.0000
  O3          0.77782      0.08995      0.76470  1.0000
  O1          0.68913      0.78047      0.93116  1.0000
  O3          0.08263      0.31435      0.59369  1.0000
  O3          0.23223      0.90688      0.26024  1.0000
  O1          0.55422      0.57629      0.99415  1.0000
  O1          0.44106      0.99499      0.32375  1.0000
  O1          0.00469      0.44104      0.65651  1.0000
  O1          0.43749      0.44067      0.48593  1.0000
  O3          0.58147      0.01476      0.81999  1.0000
  O1          0.99160      0.56123      0.15441  1.0000
  O1          0.57779      0.60123      0.33156  1.0000
  O1          0.01728      0.43284      0.00426  1.0000
  O3          0.40952      0.97890      0.67477  1.0000
  O1          0.44474      0.40206      0.84526  1.0000
  O1          0.96105      0.56717      0.50194  1.0000
  O1          0.60479      0.03399      0.16888  1.0000
  O1          0.56719      0.15780      0.25076  1.0000
  O1          0.83758      0.39227      0.58302  1.0000
  O1          0.61071      0.46966      0.92213  1.0000
  O1          0.46972      0.85471      0.74592  1.0000
  O1          0.13589      0.59842      0.07856  1.0000
  O1          0.40899      0.56767      0.40995  1.0000
  F           0.46177      0.92197      0.23407  1.0000
  F           0.07520      0.53657      0.56751  1.0000
  F           0.45317      0.59107      0.90224  1.0000
  F           0.58947      0.14133      0.73551  1.0000
  F           0.85519      0.43818      0.06710  1.0000
  F           0.54134      0.46230      0.39917  1.0000
