data_cif

_audit_creation_method             'generated by GULP'

_symmetry_space_group_name_H-M     'P 1'
_symmetry_Int_Tables_number        1
_symmetry_cell_setting             triclinic

_cell_length_a                       12.2759
_cell_length_b                       12.3126
_cell_length_c                       30.0715
_cell_angle_alpha                   89.5870
_cell_angle_beta                    89.9456
_cell_angle_gamma                  120.0134

loop_
_atom_site_label
_atom_site_fract_x
_atom_site_fract_y
_atom_site_fract_z
_atom_site_occupancy
  Ge          0.69960      0.37570      0.03389  1.0000
  Ge          0.67622      0.32790      0.36675  1.0000
  Ge          0.71333      0.33666      0.70003  1.0000
  Ge          0.35079      0.65911      0.52563  1.0000
  Ge          0.39373      0.71493      0.85829  1.0000
  Ge          0.35702      0.70066      0.19295  1.0000
  Ge          0.41067      0.70552      0.29313  1.0000
  Ge          0.34214      0.64382      0.95885  1.0000
  Ge          0.33819      0.70250      0.62623  1.0000
  Ge          0.64455      0.32211      0.80378  1.0000
  Ge          0.71145      0.40803      0.46423  1.0000
  Ge          0.73662      0.33247      0.13243  1.0000
  Ge          0.52776      0.43269      0.97023  1.0000
  Ge          0.62199      0.10343      0.30244  1.0000
  Ge          0.93962      0.51588      0.63614  1.0000
  Ge          0.52137      0.60869      0.45986  1.0000
  Ge          0.45136      0.93792      0.79057  1.0000
  Ge          0.13710      0.53080      0.12637  1.0000
  Ge          0.47090      0.54002      0.35470  1.0000
  Ge          0.11575      0.57999      0.02080  1.0000
  Ge          0.50139      0.92265      0.68939  1.0000
  Ge          0.58916      0.49542      0.86514  1.0000
  Ge          0.93278      0.46314      0.53056  1.0000
  Ge          0.56912      0.10815      0.19686  1.0000
  Ge          0.30019      0.42105      0.84958  1.0000
  Si          0.64202      0.89521      0.18442  1.0000
  Si          0.15314      0.74586      0.51715  1.0000
  Ge          0.76366      0.61444      0.35008  1.0000
  Ge          0.42570      0.14071      0.68361  1.0000
  Ge          0.89753      0.28775      0.01558  1.0000
  Ge          0.43491      0.31790      0.48195  1.0000
  Ge          0.92771      0.60952      0.14914  1.0000
  Ge          0.72672      0.11840      0.81650  1.0000
  Ge          0.61417      0.72600      0.98392  1.0000
  Ge          0.14914      0.43050      0.65119  1.0000
  Ge          0.32803      0.89400      0.31695  1.0000
  Ge          0.24267      0.35651      0.95463  1.0000
  Ge          0.69796      0.89537      0.28760  1.0000
  Ge          0.14754      0.80008      0.62020  1.0000
  Si          0.80602      0.68855      0.45254  1.0000
  Si          0.35737      0.12220      0.78619  1.0000
  Ge          0.93035      0.24293      0.11992  1.0000
  Si          0.39111      0.25909      0.37952  1.0000
  Si          0.91481      0.65934      0.04682  1.0000
  Si          0.78134      0.12175      0.71343  1.0000
  Si          0.67424      0.77637      0.88111  1.0000
  Ge          0.13428      0.37284      0.54695  1.0000
  Si          0.28372      0.90903      0.21434  1.0000
  Si          0.97325      0.11586      0.96754  1.0000
  Si          0.93798      0.86397      0.30050  1.0000
  Si          0.17958      0.07119      0.63314  1.0000
  Si          0.07449      0.91284      0.46628  1.0000
  Si          0.13261      0.16971      0.79996  1.0000
  Si          0.89042      0.97266      0.13429  1.0000
  Si          0.16802      0.98764      0.36639  1.0000
  Si          0.86721      0.88394      0.03380  1.0000
  Si          0.05607      0.17623      0.70040  1.0000
  Si          0.90227      0.04500      0.86663  1.0000
  Si          0.17927      0.14608      0.53163  1.0000
  Si          0.01280      0.85969      0.19991  1.0000
  O2          0.94388      0.99616      0.99834  1.0000
  O2          0.05674      0.95419      0.33111  1.0000
  O2          0.09187      0.10185      0.66453  1.0000
  O2          0.10754      0.02873      0.49837  1.0000
  O2          0.01743      0.07933      0.83268  1.0000
  O2          0.97233      0.93120      0.16418  1.0000
  O1          0.37517      0.56592      0.32265  1.0000
  O1          0.47694      0.80587      0.65532  1.0000
  O1          0.23679      0.67744      0.98891  1.0000
  O1          0.67878      0.45254      0.83475  1.0000
  O1          0.60296      0.23297      0.16567  1.0000
  O1          0.80858      0.37694      0.49898  1.0000
  O1          0.57570      0.34521      0.00030  1.0000
  O1          0.80609      0.46530      0.66850  1.0000
  O1          0.70863      0.23708      0.33311  1.0000
  O1          0.46783      0.69536      0.48744  1.0000
  O1          0.28075      0.59224      0.15280  1.0000
  O1          0.36206      0.79698      0.82184  1.0000
  O3          0.11469      0.22168      0.97694  1.0000
  O3          0.83365      0.90256      0.30832  1.0000
  O3          0.13897      0.92738      0.64069  1.0000
  O2          0.92521      0.81900      0.47016  1.0000
  O2          0.23899      0.13046      0.80639  1.0000
  O3          0.94880      0.11899      0.13997  1.0000
  O2          0.27045      0.13415      0.35897  1.0000
  O2          0.91082      0.78115      0.02663  1.0000
  O2          0.90878      0.12978      0.69316  1.0000
  O2          0.79897      0.89786      0.86022  1.0000
  O3          0.12434      0.23760      0.52367  1.0000
  O2          0.16205      0.91212      0.19352  1.0000
  O2          0.98275      0.88837      0.24904  1.0000
  O2          0.15491      0.09374      0.58212  1.0000
  O2          0.95710      0.07171      0.91626  1.0000
  O2          0.07997      0.14135      0.74975  1.0000
  O2          0.90000      0.93947      0.08320  1.0000
  O2          0.11182      0.96409      0.41613  1.0000
  O3          0.88604      0.17575      0.97697  1.0000
  O3          0.87769      0.71816      0.31226  1.0000
  O3          0.32598      0.15344      0.64486  1.0000
  O2          0.14858      0.83987      0.47949  1.0000
  O3          0.19400      0.31502      0.81040  1.0000
  O2          0.74226      0.90157      0.14736  1.0000
  O3          0.22914      0.90266      0.35703  1.0000
  O3          0.72066      0.82282      0.02414  1.0000
  O3          0.13833      0.32342      0.69216  1.0000
  O3          0.83696      0.12538      0.85511  1.0000
  O3          0.32704      0.22037      0.52209  1.0000
  O3          0.93722      0.71342      0.19032  1.0000
  O1          0.33180      0.63140      0.24420  1.0000
  O1          0.41435      0.69828      0.57754  1.0000
  O1          0.35193      0.72970      0.91161  1.0000
  O1          0.72520      0.37912      0.75476  1.0000
  O1          0.64779      0.33465      0.08730  1.0000
  O1          0.71635      0.31775      0.42013  1.0000
  O1          0.36901      0.35898      0.98026  1.0000
  O1          0.69626      0.01883      0.31267  1.0000
  O1          0.02398      0.67403      0.64606  1.0000
  O3          0.68154      0.68337      0.47214  1.0000
  O3          0.35398      0.00093      0.80632  1.0000
  O1          0.05824      0.37407      0.14087  1.0000
  O3          0.37937      0.37868      0.36779  1.0000
  O3          0.04642      0.67118      0.03559  1.0000
  O3          0.66472      0.99013      0.70136  1.0000
  O3          0.68870      0.65471      0.87467  1.0000
  O1          0.99336      0.36367      0.54055  1.0000
  O3          0.40660      0.04157      0.20742  1.0000
  O1          0.75275      0.27613      0.01657  1.0000
  O1          0.77538      0.48231      0.34971  1.0000
  O1          0.56022      0.28424      0.68450  1.0000
  O3          0.28914      0.75830      0.51402  1.0000
  O1          0.29369      0.55477      0.84581  1.0000
  O3          0.51773      0.76046      0.18144  1.0000
  O1          0.33298      0.76060      0.32791  1.0000
  O1          0.47391      0.71698      0.99429  1.0000
  O1          0.28097      0.57009      0.66175  1.0000
  O1          0.70541      0.24214      0.83129  1.0000
  O1          0.57506      0.33347      0.49747  1.0000
  O1          0.80284      0.46858      0.16470  1.0000
  O3          0.80351      0.53539      0.02451  1.0000
  O3          0.51596      0.27155      0.35757  1.0000
  O3          0.76362      0.23032      0.69013  1.0000
  O1          0.24818      0.50090      0.51859  1.0000
  O3          0.55206      0.75259      0.85473  1.0000
  O3          0.30046      0.80483      0.18830  1.0000
  O1          0.57376      0.75595      0.30383  1.0000
  O1          0.22794      0.48129      0.96993  1.0000
  O1          0.28566      0.81282      0.63598  1.0000
  O3          0.48127      0.25034      0.80130  1.0000
  O3          0.81924      0.57416      0.47131  1.0000
  O1          0.79340      0.22576      0.14079  1.0000
  O1          0.24071      0.33608      0.89793  1.0000
  O3          0.71732      0.91744      0.23023  1.0000
  O3          0.12855      0.79765      0.56278  1.0000
  O3          0.81113      0.69938      0.39887  1.0000
  O3          0.34147      0.11153      0.73272  1.0000
  O1          0.93467      0.23438      0.06285  1.0000
  O3          0.38246      0.23528      0.43251  1.0000
  O3          0.89517      0.66186      0.09979  1.0000
  O3          0.80637      0.14501      0.76605  1.0000
  O3          0.67311      0.80411      0.93321  1.0000
  O1          0.16755      0.36882      0.60213  1.0000
  O3          0.25183      0.87763      0.26641  1.0000
  O1          0.60851      0.58447      0.98914  1.0000
  O1          0.47001      0.02933      0.32256  1.0000
  O1          0.01151      0.43531      0.65512  1.0000
  O1          0.43901      0.45955      0.48258  1.0000
  O1          0.58953      0.98108      0.82197  1.0000
  O1          0.06735      0.60997      0.14879  1.0000
  O1          0.61424      0.56915      0.33340  1.0000
  O1          0.99966      0.43869      0.99938  1.0000
  O1          0.46815      0.03508      0.66774  1.0000
  O1          0.45297      0.46014      0.83793  1.0000
  O3          0.05252      0.60249      0.50730  1.0000
  O3          0.59822      0.99532      0.17381  1.0000
  O1          0.64057      0.15018      0.24806  1.0000
  O1          0.89137      0.49231      0.58208  1.0000
  O1          0.55525      0.41758      0.91525  1.0000
  O1          0.42416      0.86635      0.73934  1.0000
  O1          0.16470      0.54653      0.07072  1.0000
  O1          0.49928      0.61926      0.40472  1.0000
  F           0.47806      0.86560      0.26082  1.0000
  F           0.17832      0.60592      0.59323  1.0000
  F           0.43200      0.57313      0.92643  1.0000
  F           0.55936      0.10282      0.75907  1.0000
  F           0.88638      0.42205      0.09215  1.0000
  F           0.61984      0.45953      0.42437  1.0000
