data_cif

_audit_creation_method             'generated by GULP'

_symmetry_space_group_name_H-M     'P 1'
_symmetry_Int_Tables_number        1
_symmetry_cell_setting             triclinic

_cell_length_a                       12.2899
_cell_length_b                       12.3152
_cell_length_c                       30.1789
_cell_angle_alpha                   90.0058
_cell_angle_beta                    90.0426
_cell_angle_gamma                  120.0420

loop_
_atom_site_label
_atom_site_fract_x
_atom_site_fract_y
_atom_site_fract_z
_atom_site_occupancy
  Ge          0.69960      0.37570      0.03389  1.0000
  Ge          0.65167      0.34368      0.36590  1.0000
  Ge          0.68744      0.32074      0.70006  1.0000
  Ge          0.32567      0.65111      0.53301  1.0000
  Ge          0.37684      0.68854      0.86645  1.0000
  Ge          0.33865      0.70358      0.20064  1.0000
  Ge          0.40259      0.70610      0.30514  1.0000
  Ge          0.31774      0.62493      0.97043  1.0000
  Ge          0.32676      0.71149      0.63777  1.0000
  Ge          0.62443      0.31875      0.80381  1.0000
  Ge          0.71554      0.40529      0.47026  1.0000
  Ge          0.70243      0.31484      0.13836  1.0000
  Ge          0.52671      0.42284      0.97047  1.0000
  Ge          0.60356      0.12061      0.30272  1.0000
  Ge          0.90631      0.49528      0.63501  1.0000
  Ge          0.50184      0.60537      0.46975  1.0000
  Ge          0.42150      0.90616      0.80193  1.0000
  Ge          0.11564      0.52730      0.13757  1.0000
  Ge          0.45469      0.53568      0.37066  1.0000
  Ge          0.09905      0.57749      0.03744  1.0000
  Ge          0.49474      0.93283      0.70295  1.0000
  Ge          0.57858      0.49099      0.87051  1.0000
  Ge          0.93684      0.45460      0.53591  1.0000
  Ge          0.53119      0.09267      0.20375  1.0000
  Ge          0.30072      0.40579      0.84869  1.0000
  Ge          0.62329      0.90742      0.18251  1.0000
  Ge          0.12310      0.73219      0.51301  1.0000
  Ge          0.73225      0.62781      0.34882  1.0000
  Ge          0.40341      0.11852      0.68144  1.0000
  Ge          0.90623      0.29899      0.01638  1.0000
  Ge          0.42276      0.31339      0.48138  1.0000
  Ge          0.90372      0.60739      0.15093  1.0000
  Ge          0.71486      0.11794      0.81419  1.0000
  Ge          0.60949      0.71544      0.98324  1.0000
  Ge          0.12358      0.42142      0.64785  1.0000
  Ge          0.31131      0.90708      0.31531  1.0000
  Si          0.24866      0.34330      0.95090  1.0000
  Si          0.68425      0.92243      0.28528  1.0000
  Ge          0.10797      0.77847      0.61742  1.0000
  Si          0.78075      0.68670      0.45160  1.0000
  Si          0.34241      0.10491      0.78397  1.0000
  Si          0.91792      0.24859      0.11893  1.0000
  Si          0.36171      0.25824      0.37911  1.0000
  Ge          0.90990      0.66866      0.04708  1.0000
  Si          0.77252      0.11660      0.71251  1.0000
  Ge          0.67025      0.77080      0.87988  1.0000
  Si          0.12164      0.36116      0.54585  1.0000
  Si          0.25353      0.90822      0.21288  1.0000
  Si          0.97358      0.12356      0.96393  1.0000
  Si          0.90808      0.87363      0.29790  1.0000
  Si          0.15910      0.05508      0.63089  1.0000
  Si          0.05423      0.90960      0.46339  1.0000
  Si          0.12488      0.16232      0.79690  1.0000
  Si          0.86883      0.97560      0.13144  1.0000
  Si          0.13800      0.98590      0.36383  1.0000
  Si          0.85858      0.89363      0.03105  1.0000
  Si          0.04735      0.17289      0.69744  1.0000
  Si          0.89332      0.04769      0.86325  1.0000
  Si          0.17185      0.13833      0.53043  1.0000
  Si          0.98017      0.85843      0.19839  1.0000
  O2          0.93793      0.00832      0.99726  1.0000
  O2          0.02681      0.96041      0.32944  1.0000
  O2          0.07675      0.09364      0.66186  1.0000
  O2          0.08779      0.02651      0.49602  1.0000
  O2          0.00983      0.08310      0.83037  1.0000
  O2          0.95351      0.94192      0.16341  1.0000
  O1          0.36667      0.58369      0.33737  1.0000
  O1          0.45161      0.79879      0.66931  1.0000
  O1          0.23608      0.66232      0.00451  1.0000
  O1          0.66320      0.43795      0.83786  1.0000
  O1          0.57895      0.22784      0.17018  1.0000
  O1          0.80194      0.36764      0.50190  1.0000
  O1          0.56323      0.33586      0.00509  1.0000
  O1          0.78299      0.45350      0.67055  1.0000
  O1          0.68804      0.24543      0.33729  1.0000
  O1          0.46185      0.68814      0.50525  1.0000
  O1          0.24023      0.56789      0.17242  1.0000
  O1          0.33636      0.78309      0.83699  1.0000
  O2          0.12205      0.22284      0.97040  1.0000
  O2          0.80527      0.91751      0.30529  1.0000
  O3          0.10955      0.91016      0.63987  1.0000
  O2          0.90720      0.80746      0.47143  1.0000
  O2          0.22262      0.11191      0.80383  1.0000
  O2          0.91345      0.12278      0.13849  1.0000
  O2          0.24497      0.13126      0.35848  1.0000
  O3          0.90411      0.79484      0.02332  1.0000
  O2          0.90049      0.12905      0.69206  1.0000
  O3          0.79569      0.90301      0.85583  1.0000
  O2          0.13191      0.24444      0.52534  1.0000
  O2          0.12581      0.89702      0.19250  1.0000
  O2          0.95529      0.89402      0.24729  1.0000
  O2          0.14068      0.07989      0.57961  1.0000
  O2          0.94385      0.07206      0.91387  1.0000
  O2          0.07438      0.14060      0.74659  1.0000
  O2          0.89042      0.94843      0.08107  1.0000
  O2          0.07938      0.95948      0.41305  1.0000
  O3          0.89561      0.19003      0.97671  1.0000
  O3          0.84626      0.72981      0.31115  1.0000
  O3          0.30484      0.13391      0.64320  1.0000
  O3          0.13466      0.84438      0.47430  1.0000
  O3          0.19181      0.30710      0.80900  1.0000
  O3          0.72451      0.89473      0.14457  1.0000
  O3          0.20163      0.90334      0.35362  1.0000
  O3          0.70982      0.82312      0.02328  1.0000
  O3          0.12721      0.31937      0.68776  1.0000
  O3          0.82399      0.12563      0.85337  1.0000
  O3          0.31822      0.20346      0.51995  1.0000
  O3          0.89845      0.71108      0.19020  1.0000
  O1          0.36806      0.65933      0.25047  1.0000
  O1          0.36828      0.72831      0.58224  1.0000
  O1          0.29986      0.65612      0.91585  1.0000
  O1          0.65549      0.36676      0.74918  1.0000
  O1          0.65576      0.30145      0.08362  1.0000
  O1          0.72759      0.37324      0.41533  1.0000
  O3          0.36550      0.32325      0.96037  1.0000
  O3          0.70384      0.05875      0.29521  1.0000
  O1          0.96163      0.65410      0.62755  1.0000
  O3          0.66388      0.70612      0.46204  1.0000
  O3          0.32136      0.96800      0.79375  1.0000
  O3          0.05455      0.36612      0.12859  1.0000
  O3          0.35779      0.37420      0.35742  1.0000
  O1          0.03851      0.67442      0.02357  1.0000
  O3          0.65675      0.99988      0.68931  1.0000
  O1          0.67482      0.64806      0.85588  1.0000
  O3          0.00462      0.36081      0.52291  1.0000
  O3          0.36921      0.02747      0.19067  1.0000
  O1          0.78014      0.31769      0.00461  1.0000
  O1          0.71238      0.48237      0.33688  1.0000
  O1          0.55011      0.24227      0.67011  1.0000
  O1          0.24749      0.70884      0.50230  1.0000
  O1          0.32112      0.55082      0.83678  1.0000
  O1          0.47752      0.78050      0.17148  1.0000
  O1          0.30507      0.76657      0.31855  1.0000
  O1          0.47618      0.72461      0.98220  1.0000
  O1          0.26731      0.55292      0.64958  1.0000
  O1          0.72353      0.25947      0.81550  1.0000
  O1          0.55734      0.30713      0.48365  1.0000
  O1          0.76212      0.47260      0.15176  1.0000
  O1          0.77045      0.53750      0.03284  1.0000
  O3          0.48782      0.25569      0.36640  1.0000
  O3          0.77737      0.24733      0.70200  1.0000
  O3          0.25144      0.48765      0.53476  1.0000
  O1          0.53885      0.78004      0.86689  1.0000
  O3          0.25084      0.77946      0.20046  1.0000
  O3          0.55878      0.82508      0.31080  1.0000
  O3          0.27835      0.46860      0.97676  1.0000
  O1          0.20882      0.74688      0.64592  1.0000
  O3          0.46810      0.20078      0.80982  1.0000
  O3          0.75252      0.56098      0.47688  1.0000
  O3          0.82104      0.27713      0.14452  1.0000
  O3          0.22284      0.34818      0.89893  1.0000
  O3          0.68242      0.89267      0.23335  1.0000
  O1          0.14143      0.81132      0.56236  1.0000
  O3          0.80753      0.68524      0.39959  1.0000
  O3          0.34473      0.13504      0.73210  1.0000
  O3          0.88811      0.22292      0.06687  1.0000
  O3          0.34158      0.25466      0.43207  1.0000
  O1          0.92696      0.69302      0.10338  1.0000
  O3          0.77211      0.09230      0.76515  1.0000
  O1          0.69755      0.77588      0.93598  1.0000
  O3          0.09979      0.33956      0.59860  1.0000
  O3          0.25139      0.92650      0.26579  1.0000
  O1          0.56909      0.56440      0.99617  1.0000
  O1          0.46052      0.02242      0.32785  1.0000
  O1          0.00958      0.45674      0.66023  1.0000
  O1          0.45685      0.46202      0.49442  1.0000
  O1          0.56509      0.00437      0.82707  1.0000
  O1          0.01679      0.56979      0.16327  1.0000
  O1          0.59541      0.62730      0.34036  1.0000
  O1          0.04464      0.43441      0.00895  1.0000
  O1          0.40146      0.98099      0.67285  1.0000
  O1          0.43566      0.40152      0.84174  1.0000
  O1          0.98569      0.59516      0.50567  1.0000
  O1          0.62220      0.04286      0.17342  1.0000
  O1          0.58782      0.17762      0.25300  1.0000
  O1          0.85141      0.42125      0.58518  1.0000
  O1          0.60398      0.44082      0.92140  1.0000
  O1          0.43813      0.84859      0.75238  1.0000
  O1          0.17518      0.60226      0.08824  1.0000
  O1          0.42749      0.59100      0.42036  1.0000
  F           0.48104      0.94035      0.24019  1.0000
  F           0.08905      0.56106      0.57305  1.0000
  F           0.47851      0.55428      0.90641  1.0000
  F           0.54457      0.08533      0.73920  1.0000
  F           0.93530      0.47777      0.07378  1.0000
  F           0.55808      0.48478      0.40657  1.0000
