data_cif

_audit_creation_method             'generated by GULP'

_symmetry_space_group_name_H-M     'P 1'
_symmetry_Int_Tables_number        1
_symmetry_cell_setting             triclinic

_cell_length_a                       12.3057
_cell_length_b                       12.2954
_cell_length_c                       30.1212
_cell_angle_alpha                   91.0294
_cell_angle_beta                    89.2947
_cell_angle_gamma                  120.0680

loop_
_atom_site_label
_atom_site_fract_x
_atom_site_fract_y
_atom_site_fract_z
_atom_site_occupancy
  Ge          0.69960      0.37570      0.03389  1.0000
  Ge          0.63988      0.31967      0.36604  1.0000
  Ge          0.72191      0.34699      0.70136  1.0000
  Ge          0.33777      0.64068      0.53795  1.0000
  Ge          0.38291      0.70619      0.87349  1.0000
  Ge          0.33594      0.70381      0.20551  1.0000
  Ge          0.39792      0.71010      0.30923  1.0000
  Ge          0.34263      0.62962      0.97103  1.0000
  Ge          0.32917      0.70188      0.64223  1.0000
  Ge          0.64949      0.32644      0.80150  1.0000
  Ge          0.70490      0.38176      0.47055  1.0000
  Ge          0.71390      0.33534      0.13429  1.0000
  Ge          0.53005      0.42580      0.96892  1.0000
  Ge          0.59085      0.09681      0.29899  1.0000
  Ge          0.94346      0.51004      0.63411  1.0000
  Ge          0.51017      0.58811      0.47209  1.0000
  Ge          0.43870      0.92998      0.80906  1.0000
  Ge          0.11231      0.52433      0.14144  1.0000
  Ge          0.44213      0.53421      0.37184  1.0000
  Ge          0.11806      0.57360      0.03603  1.0000
  Ge          0.50330      0.93226      0.70420  1.0000
  Ge          0.58563      0.49039      0.86375  1.0000
  Ge          0.92501      0.43671      0.53444  1.0000
  Ge          0.54766      0.11783      0.19843  1.0000
  Ge          0.29424      0.41803      0.85851  1.0000
  Ge          0.62430      0.89999      0.19111  1.0000
  Ge          0.13824      0.73086      0.52473  1.0000
  Ge          0.73253      0.61350      0.35579  1.0000
  Ge          0.42843      0.14623      0.69083  1.0000
  Si          0.89770      0.29019      0.02391  1.0000
  Ge          0.42350      0.30809      0.49045  1.0000
  Ge          0.90309      0.60897      0.15796  1.0000
  Ge          0.73187      0.13717      0.82459  1.0000
  Ge          0.61712      0.71842      0.99018  1.0000
  Ge          0.12572      0.41699      0.65836  1.0000
  Ge          0.31549      0.91404      0.32340  1.0000
  Si          0.24685      0.34755      0.96098  1.0000
  Si          0.68626      0.91391      0.29353  1.0000
  Si          0.12757      0.78825      0.62724  1.0000
  Ge          0.78933      0.67518      0.45953  1.0000
  Ge          0.36198      0.13803      0.79554  1.0000
  Ge          0.90489      0.23918      0.12677  1.0000
  Si          0.35928      0.25522      0.38806  1.0000
  Ge          0.91617      0.66307      0.05390  1.0000
  Si          0.78420      0.12897      0.72192  1.0000
  Si          0.66569      0.77316      0.88783  1.0000
  Si          0.12269      0.35794      0.55530  1.0000
  Si          0.26681      0.91771      0.22060  1.0000
  Si          0.97828      0.12248      0.97415  1.0000
  Si          0.90774      0.86296      0.30743  1.0000
  Si          0.17738      0.06209      0.64136  1.0000
  Si          0.06461      0.90370      0.47567  1.0000
  Si          0.12205      0.16772      0.80910  1.0000
  Si          0.87188      0.96808      0.14084  1.0000
  Si          0.13578      0.98125      0.37473  1.0000
  Si          0.87137      0.88984      0.03950  1.0000
  Si          0.05349      0.17032      0.70800  1.0000
  Si          0.88985      0.04407      0.87438  1.0000
  Si          0.17681      0.13739      0.54153  1.0000
  Si          0.99281      0.86291      0.20822  1.0000
  O2          0.94402      0.00761      0.00658  1.0000
  O2          0.01906      0.94676      0.34219  1.0000
  O2          0.08759      0.08809      0.67417  1.0000
  O2          0.09601      0.02251      0.50759  1.0000
  O2          0.00169      0.07686      0.83915  1.0000
  O2          0.95682      0.93748      0.17304  1.0000
  O1          0.35846      0.57657      0.33815  1.0000
  O1          0.46158      0.80110      0.67257  1.0000
  O1          0.24208      0.66089      0.00427  1.0000
  O1          0.68321      0.46492      0.83252  1.0000
  O1          0.57572      0.23509      0.16445  1.0000
  O1          0.80415      0.34648      0.49908  1.0000
  O1          0.58154      0.33878      0.99675  1.0000
  O1          0.80532      0.46222      0.66608  1.0000
  O1          0.67717      0.23626      0.33206  1.0000
  O1          0.46115      0.67552      0.50589  1.0000
  O1          0.24639      0.57659      0.17282  1.0000
  O1          0.35168      0.79430      0.83843  1.0000
  O2          0.12678      0.21770      0.97867  1.0000
  O2          0.80393      0.90590      0.31371  1.0000
  O2          0.13854      0.91680      0.64751  1.0000
  O3          0.92204      0.80037      0.48398  1.0000
  O3          0.22664      0.13071      0.81763  1.0000
  O3          0.91500      0.11316      0.14731  1.0000
  O2          0.23692      0.12929      0.36854  1.0000
  O3          0.92485      0.79727      0.03058  1.0000
  O2          0.90652      0.12694      0.70115  1.0000
  O2          0.78784      0.89718      0.86727  1.0000
  O2          0.13130      0.23875      0.53488  1.0000
  O2          0.14048      0.91136      0.20091  1.0000
  O2          0.96673      0.89504      0.25801  1.0000
  O2          0.14937      0.08543      0.59138  1.0000
  O2          0.94464      0.06976      0.92405  1.0000
  O2          0.07938      0.14359      0.75759  1.0000
  O2          0.89665      0.94144      0.09013  1.0000
  O2          0.08479      0.95108      0.42492  1.0000
  O2          0.90249      0.19485      0.98640  1.0000
  O3          0.83993      0.71585      0.31598  1.0000
  O3          0.32306      0.14672      0.65174  1.0000
  O3          0.14801      0.84056      0.48607  1.0000
  O3          0.18094      0.31387      0.82078  1.0000
  O3          0.72522      0.88807      0.15235  1.0000
  O3          0.20177      0.90246      0.36166  1.0000
  O3          0.72383      0.81688      0.03027  1.0000
  O3          0.13463      0.31581      0.69667  1.0000
  O3          0.82882      0.12870      0.86459  1.0000
  O3          0.32206      0.20047      0.52980  1.0000
  O3          0.91247      0.71574      0.19925  1.0000
  O1          0.31979      0.65874      0.25974  1.0000
  O1          0.38105      0.67421      0.59311  1.0000
  O1          0.34138      0.71970      0.92650  1.0000
  O1          0.73628      0.40323      0.75490  1.0000
  O1          0.63711      0.33730      0.08603  1.0000
  O1          0.67338      0.30539      0.42071  1.0000
  O3          0.36986      0.35269      0.98106  1.0000
  O3          0.68823      0.03449      0.31449  1.0000
  O3          0.00744      0.67212      0.64848  1.0000
  O1          0.66829      0.68257      0.48472  1.0000
  O1          0.36402      0.01370      0.81992  1.0000
  O1          0.02792      0.36644      0.15213  1.0000
  O3          0.34048      0.37312      0.37968  1.0000
  O1          0.05687      0.67277      0.04657  1.0000
  O3          0.66261      0.99264      0.71439  1.0000
  O3          0.67655      0.65244      0.87704  1.0000
  O3          0.98723      0.33785      0.54416  1.0000
  O3          0.38400      0.05047      0.20971  1.0000
  O3          0.76166      0.27688      0.02147  1.0000
  O1          0.73880      0.47869      0.35421  1.0000
  O1          0.56226      0.28709      0.68823  1.0000
  O1          0.28012      0.73901      0.52427  1.0000
  O1          0.28362      0.55090      0.85719  1.0000
  O1          0.48983      0.75642      0.19092  1.0000
  O1          0.33772      0.79109      0.33731  1.0000
  O1          0.47682      0.70456      0.00480  1.0000
  O1          0.25105      0.56370      0.67097  1.0000
  O1          0.72203      0.26759      0.83622  1.0000
  O1          0.56741      0.32437      0.50099  1.0000
  O1          0.77230      0.46917      0.16938  1.0000
  O1          0.80155      0.53395      0.02627  1.0000
  O3          0.48368      0.28323      0.36149  1.0000
  O3          0.76035      0.22730      0.69637  1.0000
  O3          0.22198      0.48397      0.53076  1.0000
  O3          0.54303      0.76147      0.86509  1.0000
  O3          0.28676      0.81113      0.19612  1.0000
  O3          0.56135      0.78473      0.30707  1.0000
  O3          0.23375      0.46329      0.97897  1.0000
  O3          0.25621      0.79217      0.64095  1.0000
  O1          0.48678      0.27742      0.81195  1.0000
  O1          0.79754      0.54389      0.47208  1.0000
  O1          0.76670      0.22575      0.14325  1.0000
  O3          0.24395      0.33476      0.90741  1.0000
  O3          0.70610      0.92789      0.24028  1.0000
  O3          0.11205      0.78905      0.57409  1.0000
  O1          0.79589      0.70100      0.40344  1.0000
  O1          0.34233      0.11997      0.73882  1.0000
  O3          0.92300      0.23986      0.06938  1.0000
  O3          0.36389      0.23013      0.43997  1.0000
  O1          0.88386      0.66927      0.10920  1.0000
  O3          0.81097      0.15752      0.77413  1.0000
  O3          0.67182      0.79947      0.94064  1.0000
  O3          0.14781      0.35968      0.60766  1.0000
  O3          0.23905      0.89035      0.27283  1.0000
  O1          0.61154      0.57592      0.99134  1.0000
  O1          0.45110      0.05257      0.33004  1.0000
  O1          0.98960      0.41828      0.66526  1.0000
  O1          0.42245      0.44456      0.49942  1.0000
  O1          0.59019      0.00079      0.82864  1.0000
  O1          0.04138      0.60603      0.16093  1.0000
  O1          0.58171      0.57666      0.34459  1.0000
  O3          0.99783      0.43343      0.01336  1.0000
  O1          0.46833      0.03365      0.67810  1.0000
  O1          0.44351      0.46165      0.84210  1.0000
  O1          0.02658      0.58067      0.51057  1.0000
  O1          0.58296      0.00666      0.17625  1.0000
  O1          0.62145      0.17343      0.24877  1.0000
  O1          0.86497      0.45573      0.58355  1.0000
  O1          0.55346      0.41261      0.91400  1.0000
  O1          0.42440      0.88752      0.75395  1.0000
  O1          0.15946      0.54525      0.08723  1.0000
  O1          0.45840      0.61073      0.42152  1.0000
  F           0.48701      0.93615      0.26611  1.0000
  F           0.10111      0.56187      0.60020  1.0000
  F           0.43417      0.57535      0.93225  1.0000
  F           0.57928      0.16606      0.76757  1.0000
  F           0.87348      0.43229      0.10014  1.0000
  F           0.57297      0.48455      0.43315  1.0000
