data_cif

_audit_creation_method             'generated by GULP'

_symmetry_space_group_name_H-M     'P 1'
_symmetry_Int_Tables_number        1
_symmetry_cell_setting             triclinic

_cell_length_a                       12.2752
_cell_length_b                       12.3223
_cell_length_c                       30.1377
_cell_angle_alpha                   91.0322
_cell_angle_beta                    90.1037
_cell_angle_gamma                  119.9717

loop_
_atom_site_label
_atom_site_fract_x
_atom_site_fract_y
_atom_site_fract_z
_atom_site_occupancy
  Ge          0.69960      0.37570      0.03389  1.0000
  Ge          0.63393      0.30615      0.36357  1.0000
  Ge          0.69295      0.32156      0.70004  1.0000
  Ge          0.33988      0.62986      0.53031  1.0000
  Ge          0.37288      0.68725      0.86639  1.0000
  Ge          0.31629      0.68650      0.19563  1.0000
  Ge          0.38076      0.68919      0.30021  1.0000
  Ge          0.33451      0.62337      0.96527  1.0000
  Ge          0.31132      0.68050      0.63002  1.0000
  Ge          0.63208      0.29993      0.79985  1.0000
  Ge          0.69714      0.37712      0.46820  1.0000
  Ge          0.70454      0.32064      0.13763  1.0000
  Ge          0.51918      0.41808      0.96991  1.0000
  Ge          0.57951      0.07840      0.29887  1.0000
  Ge          0.91322      0.49013      0.63535  1.0000
  Ge          0.50475      0.57217      0.46301  1.0000
  Ge          0.42394      0.90340      0.80056  1.0000
  Ge          0.09116      0.51157      0.12970  1.0000
  Ge          0.43185      0.51867      0.36342  1.0000
  Ge          0.11398      0.57418      0.02915  1.0000
  Ge          0.47785      0.90336      0.69528  1.0000
  Ge          0.57854      0.46751      0.86518  1.0000
  Ge          0.92515      0.43115      0.53051  1.0000
  Ge          0.53114      0.10028      0.19990  1.0000
  Ge          0.28793      0.40000      0.85594  1.0000
  Ge          0.60942      0.88702      0.18611  1.0000
  Ge          0.13779      0.72031      0.51785  1.0000
  Ge          0.72455      0.59686      0.35200  1.0000
  Si          0.41187      0.12165      0.68591  1.0000
  Ge          0.89592      0.28191      0.02082  1.0000
  Ge          0.41278      0.29654      0.48491  1.0000
  Ge          0.90837      0.60591      0.15264  1.0000
  Ge          0.71733      0.11178      0.82139  1.0000
  Ge          0.60894      0.71215      0.98845  1.0000
  Ge          0.12376      0.40876      0.65280  1.0000
  Ge          0.30177      0.89391      0.31921  1.0000
  Si          0.23611      0.33856      0.95824  1.0000
  Si          0.67091      0.89282      0.28858  1.0000
  Ge          0.12092      0.77519      0.62253  1.0000
  Si          0.78317      0.66471      0.45470  1.0000
  Ge          0.34627      0.11083      0.78827  1.0000
  Si          0.90712      0.23396      0.12328  1.0000
  Si          0.35172      0.24149      0.38192  1.0000
  Si          0.91513      0.65799      0.04987  1.0000
  Ge          0.76692      0.10755      0.71725  1.0000
  Ge          0.66023      0.75566      0.88455  1.0000
  Si          0.12235      0.34868      0.55015  1.0000
  Si          0.25230      0.90363      0.21649  1.0000
  Si          0.96867      0.10543      0.97095  1.0000
  Si          0.89590      0.84555      0.30362  1.0000
  Si          0.16525      0.04680      0.63659  1.0000
  Si          0.05661      0.88986      0.46952  1.0000
  Si          0.11337      0.15167      0.80315  1.0000
  Si          0.86039      0.96328      0.13743  1.0000
  Si          0.12776      0.96811      0.36971  1.0000
  Si          0.86470      0.87998      0.03789  1.0000
  Si          0.04171      0.16018      0.70228  1.0000
  Si          0.88486      0.02737      0.87048  1.0000
  Si          0.16789      0.12299      0.53587  1.0000
  Si          0.97895      0.85402      0.20363  1.0000
  O2          0.94287      0.99227      0.00356  1.0000
  O2          0.00816      0.93396      0.33792  1.0000
  O2          0.09190      0.09366      0.66819  1.0000
  O2          0.08231      0.00339      0.50363  1.0000
  O2          0.99695      0.07144      0.83523  1.0000
  O2          0.94622      0.93869      0.17198  1.0000
  O1          0.34609      0.55562      0.32828  1.0000
  O1          0.44767      0.78240      0.66214  1.0000
  O1          0.23282      0.65910      0.99533  1.0000
  O1          0.66932      0.43283      0.83402  1.0000
  O1          0.57055      0.22450      0.16601  1.0000
  O1          0.79620      0.34251      0.49783  1.0000
  O1          0.57112      0.33688      0.00148  1.0000
  O1          0.77470      0.43921      0.66358  1.0000
  O1          0.66881      0.21511      0.33279  1.0000
  O1          0.45779      0.66169      0.49609  1.0000
  O1          0.23010      0.56358      0.16279  1.0000
  O1          0.33663      0.76875      0.82984  1.0000
  O2          0.11457      0.21366      0.97725  1.0000
  O2          0.78741      0.88203      0.30928  1.0000
  O3          0.10571      0.90096      0.64281  1.0000
  O2          0.91122      0.78291      0.47498  1.0000
  O3          0.20842      0.09997      0.80821  1.0000
  O2          0.89915      0.10874      0.14342  1.0000
  O2          0.23067      0.11393      0.36199  1.0000
  O2          0.91172      0.77959      0.03040  1.0000
  O3          0.89544      0.10452      0.69306  1.0000
  O3          0.79323      0.88151      0.86135  1.0000
  O2          0.12261      0.22512      0.52959  1.0000
  O2          0.12586      0.89812      0.19644  1.0000
  O2          0.95242      0.87581      0.25433  1.0000
  O2          0.14832      0.07633      0.58603  1.0000
  O2          0.94192      0.05226      0.92051  1.0000
  O2          0.06409      0.13154      0.75236  1.0000
  O2          0.89293      0.93643      0.08798  1.0000
  O2          0.08138      0.94571      0.42028  1.0000
  O3          0.88504      0.16746      0.98275  1.0000
  O3          0.83401      0.70016      0.31383  1.0000
  O2          0.31498      0.11654      0.64764  1.0000
  O3          0.14015      0.82699      0.47898  1.0000
  O3          0.18266      0.29735      0.81569  1.0000
  O3          0.71410      0.88151      0.14746  1.0000
  O3          0.18897      0.88466      0.35699  1.0000
  O3          0.71743      0.81268      0.02865  1.0000
  O3          0.11629      0.30755      0.69394  1.0000
  O3          0.81034      0.10130      0.86344  1.0000
  O3          0.31185      0.18580      0.52284  1.0000
  O3          0.89698      0.70957      0.19041  1.0000
  O1          0.30485      0.64233      0.25041  1.0000
  O1          0.39245      0.67287      0.58409  1.0000
  O1          0.33808      0.71008      0.91927  1.0000
  O1          0.71340      0.38222      0.75285  1.0000
  O1          0.65396      0.34680      0.08807  1.0000
  O1          0.66972      0.29978      0.41868  1.0000
  O3          0.35893      0.34596      0.98064  1.0000
  O3          0.67568      0.01290      0.31141  1.0000
  O1          0.99599      0.64848      0.64647  1.0000
  O3          0.66736      0.66973      0.47616  1.0000
  O1          0.35129      0.98900      0.81246  1.0000
  O3          0.02744      0.35214      0.14463  1.0000
  O3          0.33201      0.35739      0.37130  1.0000
  O3          0.04764      0.67201      0.03925  1.0000
  O1          0.63786      0.96664      0.70779  1.0000
  O1          0.67446      0.62695      0.87710  1.0000
  O3          0.98606      0.33317      0.54128  1.0000
  O3          0.36910      0.03962      0.20709  1.0000
  O1          0.75269      0.27442      0.01940  1.0000
  O1          0.73093      0.46237      0.34941  1.0000
  O3          0.53313      0.25903      0.68625  1.0000
  O1          0.27925      0.72790      0.51603  1.0000
  O1          0.27246      0.52948      0.85343  1.0000
  O1          0.47485      0.74660      0.18279  1.0000
  O1          0.31998      0.76724      0.32992  1.0000
  O1          0.46691      0.69730      0.00080  1.0000
  O1          0.25202      0.54980      0.66477  1.0000
  O1          0.70505      0.24019      0.83435  1.0000
  O1          0.55901      0.31658      0.49708  1.0000
  O1          0.78371      0.46153      0.16604  1.0000
  O3          0.80756      0.53222      0.02517  1.0000
  O3          0.47730      0.26764      0.35702  1.0000
  O1          0.75335      0.22328      0.69158  1.0000
  O3          0.22223      0.47107      0.52531  1.0000
  O1          0.53068      0.73936      0.85712  1.0000
  O3          0.27991      0.80578      0.19051  1.0000
  O3          0.54478      0.76467      0.30035  1.0000
  O3          0.22590      0.45811      0.97269  1.0000
  O1          0.26029      0.79269      0.64035  1.0000
  O1          0.46896      0.24933      0.80664  1.0000
  O3          0.78699      0.54039      0.46842  1.0000
  O3          0.77807      0.23061      0.13639  1.0000
  O3          0.23561      0.31890      0.90495  1.0000
  O3          0.69088      0.90962      0.23569  1.0000
  O1          0.10717      0.77751      0.56567  1.0000
  O3          0.78505      0.67957      0.40157  1.0000
  O3          0.33180      0.09252      0.73080  1.0000
  O3          0.92148      0.22772      0.07008  1.0000
  O3          0.35409      0.21819      0.43413  1.0000
  O3          0.88698      0.65902      0.10197  1.0000
  O1          0.80112      0.13528      0.77304  1.0000
  O1          0.66677      0.79321      0.94002  1.0000
  O3          0.14664      0.35018      0.60262  1.0000
  O3          0.22558      0.87618      0.26840  1.0000
  O1          0.60371      0.56990      0.99011  1.0000
  O1          0.43914      0.02952      0.32888  1.0000
  O1          0.98527      0.41138      0.65564  1.0000
  O1          0.41395      0.43350      0.49325  1.0000
  O1          0.57570      0.97318      0.82147  1.0000
  O1          0.04598      0.60715      0.16019  1.0000
  O1          0.57480      0.56125      0.33886  1.0000
  O1          0.00256      0.42952      0.00629  1.0000
  O3          0.45921      0.02496      0.67432  1.0000
  O1          0.43839      0.44324      0.84208  1.0000
  O1          0.02720      0.56743      0.50479  1.0000
  O1          0.57530      0.00182      0.17407  1.0000
  O1          0.60626      0.16035      0.24968  1.0000
  O1          0.87590      0.46311      0.57990  1.0000
  O1          0.54304      0.39367      0.91600  1.0000
  O1          0.40286      0.86022      0.74574  1.0000
  O1          0.16842      0.55715      0.07964  1.0000
  O1          0.44855      0.59553      0.41295  1.0000
  F           0.47474      0.92386      0.26158  1.0000
  F           0.15397      0.58972      0.59514  1.0000
  F           0.43164      0.56698      0.92864  1.0000
  F           0.57386      0.14540      0.76322  1.0000
  F           0.93025      0.45540      0.09590  1.0000
  F           0.55626      0.46618      0.42750  1.0000
