data_cif

_audit_creation_method             'generated by GULP'

_symmetry_space_group_name_H-M     'P 1'
_symmetry_Int_Tables_number        1
_symmetry_cell_setting             triclinic

_cell_length_a                       11.9583
_cell_length_b                       11.9372
_cell_length_c                       29.5130
_cell_angle_alpha                   90.1259
_cell_angle_beta                    89.8971
_cell_angle_gamma                  119.6268

loop_
_atom_site_label
_atom_site_fract_x
_atom_site_fract_y
_atom_site_fract_z
_atom_site_occupancy
  Si          0.69960      0.37570      0.03389  1.0000
  Si          0.61956      0.31679      0.36647  1.0000
  Si          0.66967      0.28718      0.70123  1.0000
  Si          0.30602      0.62218      0.53699  1.0000
  Si          0.37592      0.67117      0.86858  1.0000
  Si          0.32057      0.70005      0.19719  1.0000
  Si          0.37089      0.69485      0.29786  1.0000
  Si          0.32167      0.61638      0.96881  1.0000
  Si          0.29326      0.66754      0.63860  1.0000
  Si          0.61660      0.29118      0.80177  1.0000
  Ge          0.68633      0.37475      0.46929  1.0000
  Si          0.70058      0.32199      0.13435  1.0000
  Si          0.52727      0.41278      0.96878  1.0000
  Si          0.57412      0.10430      0.29955  1.0000
  Si          0.88251      0.45668      0.63653  1.0000
  Ge          0.47066      0.57235      0.46974  1.0000
  Si          0.41436      0.88201      0.80427  1.0000
  Si          0.10890      0.52576      0.13403  1.0000
  Ge          0.41022      0.52944      0.36807  1.0000
  Si          0.10990      0.57845      0.03273  1.0000
  Si          0.46567      0.87829      0.70294  1.0000
  Si          0.57925      0.46395      0.86721  1.0000
  Si          0.89701      0.41033      0.53600  1.0000
  Si          0.52683      0.11067      0.19830  1.0000
  Si          0.29843      0.39282      0.85366  1.0000
  Si          0.59826      0.90030      0.18449  1.0000
  Si          0.09675      0.69204      0.52211  1.0000
  Si          0.69831      0.60066      0.35243  1.0000
  Si          0.39174      0.08624      0.68729  1.0000
  Si          0.90127      0.29836      0.01910  1.0000
  Ge          0.39549      0.29141      0.48796  1.0000
  Si          0.90121      0.59941      0.14933  1.0000
  Si          0.69418      0.09002      0.81772  1.0000
  Si          0.59946      0.69387      0.98346  1.0000
  Si          0.09445      0.38843      0.65152  1.0000
  Si          0.29482      0.89805      0.31315  1.0000
  Si          0.24850      0.33481      0.95421  1.0000
  Si          0.65295      0.90226      0.28523  1.0000
  Si          0.08126      0.73579      0.62278  1.0000
  Si          0.75183      0.66312      0.45520  1.0000
  Si          0.33643      0.08311      0.78797  1.0000
  Si          0.90867      0.24790      0.11957  1.0000
  Si          0.33033      0.24417      0.38528  1.0000
  Si          0.90830      0.65594      0.04871  1.0000
  Si          0.74334      0.07887      0.71725  1.0000
  Si          0.65688      0.74318      0.88282  1.0000
  Si          0.10120      0.33775      0.55090  1.0000
  Si          0.24858      0.91003      0.21259  1.0000
  Si          0.96907      0.11708      0.96895  1.0000
  Si          0.87757      0.84708      0.30192  1.0000
  Si          0.14084      0.01403      0.63820  1.0000
  Si          0.03376      0.87448      0.46935  1.0000
  Si          0.11775      0.14461      0.80373  1.0000
  Si          0.84672      0.96789      0.13485  1.0000
  Si          0.11847      0.96442      0.36724  1.0000
  Si          0.84681      0.87432      0.03400  1.0000
  Si          0.02303      0.14047      0.70301  1.0000
  Si          0.87461      0.02251      0.86843  1.0000
  Si          0.15059      0.10762      0.53776  1.0000
  Si          0.96894      0.84731      0.20044  1.0000
  O2          0.92730      0.99673      0.00209  1.0000
  O2          0.99329      0.92823      0.33675  1.0000
  O2          0.06400      0.05693      0.67191  1.0000
  O2          0.06912      0.99337      0.50242  1.0000
  O2          0.99749      0.06454      0.83662  1.0000
  O2          0.92374      0.92644      0.16899  1.0000
  O3          0.32915      0.57148      0.32848  1.0000
  O2          0.41516      0.75095      0.67159  1.0000
  O2          0.23579      0.65528      0.00092  1.0000
  O2          0.65525      0.41494      0.83432  1.0000
  O2          0.57700      0.23744      0.16670  1.0000
  O3          0.77880      0.33287      0.50194  1.0000
  O2          0.57690      0.33665      0.00123  1.0000
  O2          0.75496      0.40781      0.66794  1.0000
  O2          0.64925      0.23050      0.33164  1.0000
  O3          0.42728      0.66367      0.50641  1.0000
  O2          0.23645      0.57617      0.16516  1.0000
  O2          0.33739      0.75705      0.83661  1.0000
  O2          0.12296      0.20802      0.97403  1.0000
  O2          0.78006      0.90399      0.30559  1.0000
  O2          0.07915      0.86037      0.64400  1.0000
  O2          0.88082      0.78844      0.47241  1.0000
  O2          0.21019      0.08255      0.80846  1.0000
  O2          0.90970      0.12208      0.13976  1.0000
  O2          0.21333      0.11668      0.36176  1.0000
  O2          0.90932      0.78240      0.02827  1.0000
  O2          0.86944      0.07832      0.69721  1.0000
  O2          0.78324      0.86859      0.86281  1.0000
  O2          0.10661      0.21491      0.53002  1.0000
  O2          0.12225      0.91076      0.19292  1.0000
  O2          0.93463      0.86134      0.25190  1.0000
  O2          0.11909      0.04976      0.58807  1.0000
  O2          0.92726      0.06136      0.91895  1.0000
  O2          0.06184      0.13032      0.75383  1.0000
  O2          0.86110      0.92606      0.08479  1.0000
  O2          0.07707      0.92589      0.41874  1.0000
  O2          0.89973      0.20012      0.98067  1.0000
  O2          0.80113      0.69603      0.31492  1.0000
  O2          0.29353      0.08466      0.64885  1.0000
  O2          0.10029      0.79043      0.48326  1.0000
  O2          0.19947      0.29630      0.81562  1.0000
  O2          0.69528      0.89936      0.14621  1.0000
  O2          0.19384      0.89044      0.35138  1.0000
  O2          0.69570      0.79288      0.02170  1.0000
  O2          0.09423      0.29096      0.68986  1.0000
  O2          0.79292      0.09284      0.85614  1.0000
  O3          0.29957      0.17339      0.52774  1.0000
  O2          0.89957      0.69581      0.18810  1.0000
  O2          0.31765      0.64227      0.24711  1.0000
  O2          0.35194      0.67040      0.58896  1.0000
  O2          0.32001      0.67293      0.91880  1.0000
  O2          0.67125      0.34686      0.75124  1.0000
  O2          0.64288      0.32081      0.08426  1.0000
  O3          0.69072      0.32910      0.41345  1.0000
  O2          0.37153      0.32513      0.97224  1.0000
  O2          0.66050      0.03399      0.30410  1.0000
  O2          0.94947      0.61276      0.64057  1.0000
  O3          0.63743      0.68435      0.47157  1.0000
  O2          0.32691      0.95135      0.80689  1.0000
  O2          0.04076      0.36977      0.13789  1.0000
  O3          0.32232      0.36178      0.36339  1.0000
  O2          0.04045      0.66582      0.03017  1.0000
  O2          0.62146      0.94607      0.69938  1.0000
  O2          0.66653      0.62006      0.86454  1.0000
  O2          0.96694      0.32356      0.53284  1.0000
  O2          0.37089      0.04305      0.19512  1.0000
  O2          0.76780      0.29960      0.01188  1.0000
  O2          0.68170      0.45924      0.34419  1.0000
  O2          0.52604      0.21911      0.67919  1.0000
  O2          0.23159      0.69429      0.51618  1.0000
  O2          0.29994      0.52794      0.84625  1.0000
  O2          0.46467      0.76783      0.17586  1.0000
  O2          0.29842      0.76614      0.32055  1.0000
  O2          0.46444      0.69217      0.99129  1.0000
  O2          0.22404      0.52414      0.66069  1.0000
  O2          0.69298      0.22413      0.82434  1.0000
  O1          0.53375      0.28240      0.48940  1.0000
  O2          0.76820      0.46514      0.15692  1.0000
  O2          0.78201      0.53145      0.02925  1.0000
  O2          0.46634      0.25222      0.37282  1.0000
  O2          0.74333      0.20423      0.69715  1.0000
  O2          0.22317      0.46509      0.53120  1.0000
  O2          0.53156      0.74431      0.86335  1.0000
  O2          0.24919      0.78506      0.19212  1.0000
  O2          0.52774      0.77480      0.30391  1.0000
  O2          0.24746      0.46035      0.97407  1.0000
  O2          0.20801      0.73864      0.64273  1.0000
  O2          0.46106      0.21022      0.80702  1.0000
  O3          0.74456      0.53735      0.47760  1.0000
  O2          0.78220      0.24697      0.13924  1.0000
  O2          0.22909      0.31832      0.90001  1.0000
  O2          0.67147      0.90247      0.23096  1.0000
  O2          0.08529      0.75848      0.56862  1.0000
  O2          0.76574      0.65939      0.40052  1.0000
  O2          0.31829      0.08406      0.73372  1.0000
  O2          0.90679      0.22840      0.06534  1.0000
  O3          0.30477      0.22713      0.43840  1.0000
  O2          0.90567      0.67386      0.10299  1.0000
  O2          0.76314      0.08242      0.77149  1.0000
  O2          0.67358      0.76312      0.93707  1.0000
  O2          0.10111      0.31910      0.60523  1.0000
  O2          0.22674      0.90473      0.26671  1.0000
  O2          0.58552      0.55412      0.99204  1.0000
  O2          0.43241      0.02551      0.32251  1.0000
  O2          0.96531      0.39727      0.65940  1.0000
  O1          0.41166      0.43491      0.50400  1.0000
  O2          0.55521      0.96596      0.82732  1.0000
  O2          0.02650      0.58461      0.15790  1.0000
  O3          0.56522      0.59611      0.34564  1.0000
  O2          0.02562      0.43730      0.00983  1.0000
  O2          0.40742      0.96110      0.67930  1.0000
  O2          0.43783      0.40694      0.84462  1.0000
  O2          0.97297      0.55214      0.51191  1.0000
  O2          0.58443      0.02612      0.17555  1.0000
  O2          0.57856      0.16159      0.24930  1.0000
  O2          0.83225      0.40555      0.58533  1.0000
  O2          0.57974      0.41128      0.91800  1.0000
  O2          0.41427      0.82715      0.75386  1.0000
  O2          0.16209      0.57773      0.08341  1.0000
  O1          0.39698      0.58463      0.41977  1.0000
  F           0.44920      0.90224      0.24940  1.0000
  F           0.08672      0.53538      0.58651  1.0000
  F           0.44864      0.54287      0.91886  1.0000
  F           0.54292      0.08790      0.75274  1.0000
  F           0.90189      0.44864      0.08457  1.0000
  F           0.52002      0.46376      0.42833  1.0000
