data_cif

_audit_creation_method             'generated by GULP'

_symmetry_space_group_name_H-M     'P 1'
_symmetry_Int_Tables_number        1
_symmetry_cell_setting             triclinic

_cell_length_a                       11.9506
_cell_length_b                       11.9470
_cell_length_c                       29.4574
_cell_angle_alpha                   89.9143
_cell_angle_beta                    90.3966
_cell_angle_gamma                  119.5207

loop_
_atom_site_label
_atom_site_fract_x
_atom_site_fract_y
_atom_site_fract_z
_atom_site_occupancy
  Si          0.69960      0.37570      0.03389  1.0000
  Si          0.61943      0.32439      0.36646  1.0000
  Si          0.67890      0.29898      0.69832  1.0000
  Si          0.29813      0.61874      0.53396  1.0000
  Ge          0.38527      0.67875      0.86855  1.0000
  Si          0.32185      0.70151      0.20156  1.0000
  Si          0.37962      0.70454      0.30211  1.0000
  Ge          0.31203      0.62294      0.96789  1.0000
  Si          0.29862      0.67332      0.63458  1.0000
  Si          0.62895      0.30110      0.79881  1.0000
  Si          0.67724      0.37818      0.46712  1.0000
  Si          0.69462      0.32026      0.13465  1.0000
  Si          0.52972      0.41338      0.96693  1.0000
  Si          0.58009      0.11460      0.30076  1.0000
  Si          0.88897      0.46972      0.63409  1.0000
  Si          0.47093      0.58236      0.46901  1.0000
  Si          0.42352      0.89057      0.80036  1.0000
  Si          0.10583      0.52718      0.13899  1.0000
  Si          0.41684      0.53113      0.36728  1.0000
  Si          0.10522      0.58120      0.03754  1.0000
  Si          0.47243      0.88793      0.69805  1.0000
  Si          0.59122      0.47336      0.86388  1.0000
  Si          0.88874      0.41712      0.53232  1.0000
  Si          0.52344      0.10996      0.19900  1.0000
  Ge          0.29990      0.39901      0.84802  1.0000
  Si          0.59727      0.90137      0.18518  1.0000
  Si          0.09676      0.69644      0.51861  1.0000
  Si          0.69654      0.60263      0.35259  1.0000
  Si          0.40237      0.09953      0.68358  1.0000
  Si          0.90421      0.30060      0.02073  1.0000
  Si          0.39968      0.30136      0.48237  1.0000
  Si          0.89361      0.59720      0.15132  1.0000
  Si          0.70561      0.09844      0.81306  1.0000
  Ge          0.60210      0.70342      0.98199  1.0000
  Si          0.09811      0.39624      0.64925  1.0000
  Si          0.30121      0.90610      0.31560  1.0000
  Si          0.24608      0.33516      0.95150  1.0000
  Si          0.65816      0.91250      0.28601  1.0000
  Si          0.08995      0.74698      0.61924  1.0000
  Si          0.74920      0.65983      0.45334  1.0000
  Si          0.34869      0.09561      0.78407  1.0000
  Si          0.90641      0.24990      0.12194  1.0000
  Si          0.33895      0.25222      0.38161  1.0000
  Si          0.90107      0.65602      0.05078  1.0000
  Si          0.75053      0.08906      0.71207  1.0000
  Si          0.67158      0.75822      0.87900  1.0000
  Si          0.09071      0.33945      0.54834  1.0000
  Si          0.24698      0.90931      0.21487  1.0000
  Si          0.97206      0.12000      0.96842  1.0000
  Si          0.87649      0.85027      0.30230  1.0000
  Si          0.15268      0.02721      0.63291  1.0000
  Si          0.02884      0.87724      0.46758  1.0000
  Si          0.12234      0.14716      0.79786  1.0000
  Si          0.84666      0.97149      0.13631  1.0000
  Si          0.12103      0.97304      0.36692  1.0000
  Si          0.84953      0.88259      0.03544  1.0000
  Si          0.02706      0.14515      0.69775  1.0000
  Si          0.88785      0.03259      0.86563  1.0000
  Si          0.15244      0.12091      0.53217  1.0000
  Si          0.96608      0.84623      0.20150  1.0000
  O2          0.93108      0.99884      0.00104  1.0000
  O2          0.99792      0.93144      0.33485  1.0000
  O2          0.07102      0.06951      0.66414  1.0000
  O2          0.07155      0.00083      0.49912  1.0000
  O2          0.01230      0.07488      0.83516  1.0000
  O2          0.92338      0.92732      0.16971  1.0000
  O2          0.34089      0.58246      0.33513  1.0000
  O2          0.42230      0.76002      0.66673  1.0000
  O3          0.22727      0.66041      0.00685  1.0000
  O2          0.66928      0.42315      0.83283  1.0000
  O2          0.57057      0.23446      0.16621  1.0000
  O2          0.76364      0.34027      0.49959  1.0000
  O2          0.57896      0.33577      0.99911  1.0000
  O2          0.76348      0.42200      0.66587  1.0000
  O2          0.65693      0.24012      0.33298  1.0000
  O2          0.42152      0.65793      0.50166  1.0000
  O2          0.23257      0.57526      0.17080  1.0000
  O3          0.34712      0.77312      0.83230  1.0000
  O2          0.12603      0.20653      0.97287  1.0000
  O2          0.78559      0.91441      0.30633  1.0000
  O2          0.09090      0.87382      0.63931  1.0000
  O2          0.87523      0.78624      0.47313  1.0000
  O2          0.22290      0.09473      0.80484  1.0000
  O2          0.90647      0.12457      0.14307  1.0000
  O2          0.21133      0.12696      0.36195  1.0000
  O2          0.90192      0.78154      0.02975  1.0000
  O2          0.87420      0.08620      0.69089  1.0000
  O2          0.80364      0.87880      0.86003  1.0000
  O2          0.08983      0.21310      0.52777  1.0000
  O2          0.11908      0.90678      0.19467  1.0000
  O2          0.93124      0.86156      0.25231  1.0000
  O2          0.13915      0.06415      0.58197  1.0000
  O2          0.92979      0.07107      0.91753  1.0000
  O2          0.05853      0.11835      0.74821  1.0000
  O2          0.87058      0.93990      0.08584  1.0000
  O2          0.06826      0.92967      0.41706  1.0000
  O2          0.90496      0.20414      0.98214  1.0000
  O2          0.79432      0.69946      0.31455  1.0000
  O2          0.30390      0.09898      0.64515  1.0000
  O2          0.09859      0.79499      0.48009  1.0000
  O3          0.19824      0.29755      0.80596  1.0000
  O2          0.69394      0.90028      0.14658  1.0000
  O2          0.20408      0.90475      0.35407  1.0000
  O3          0.70071      0.80765      0.02439  1.0000
  O2          0.09841      0.29832      0.68782  1.0000
  O2          0.80548      0.10099      0.85136  1.0000
  O2          0.30364      0.20246      0.52030  1.0000
  O2          0.89303      0.69441      0.18970  1.0000
  O2          0.32368      0.64592      0.25186  1.0000
  O2          0.35561      0.67389      0.58439  1.0000
  O1          0.30280      0.68498      0.91671  1.0000
  O2          0.68290      0.35964      0.74851  1.0000
  O2          0.63902      0.31875      0.08366  1.0000
  O2          0.67733      0.32210      0.41659  1.0000
  O2          0.37466      0.32745      0.96437  1.0000
  O2          0.66799      0.04557      0.30353  1.0000
  O2          0.95772      0.62574      0.63719  1.0000
  O2          0.62679      0.66953      0.47191  1.0000
  O2          0.33989      0.96475      0.80201  1.0000
  O2          0.03693      0.37121      0.14137  1.0000
  O2          0.32903      0.37545      0.36355  1.0000
  O2          0.03315      0.66602      0.03352  1.0000
  O2          0.62812      0.95736      0.69402  1.0000
  O2          0.67085      0.62875      0.86133  1.0000
  O2          0.95834      0.32982      0.52964  1.0000
  O2          0.36738      0.04109      0.19593  1.0000
  O2          0.77094      0.30273      0.01210  1.0000
  O2          0.69474      0.46764      0.34443  1.0000
  O2          0.53599      0.23229      0.67534  1.0000
  O2          0.23001      0.69455      0.51131  1.0000
  O1          0.30070      0.53781      0.83716  1.0000
  O2          0.46320      0.76757      0.17799  1.0000
  O2          0.30408      0.77354      0.32363  1.0000
  O1          0.46643      0.71173      0.98942  1.0000
  O2          0.23138      0.53021      0.65702  1.0000
  O2          0.70545      0.23296      0.82071  1.0000
  O2          0.53468      0.30221      0.48939  1.0000
  O2          0.76047      0.46285      0.15753  1.0000
  O2          0.77514      0.53196      0.02994  1.0000
  O2          0.46352      0.25050      0.36163  1.0000
  O2          0.75332      0.21682      0.69276  1.0000
  O2          0.21696      0.46318      0.52880  1.0000
  O3          0.55421      0.77095      0.86021  1.0000
  O2          0.24630      0.78255      0.19575  1.0000
  O2          0.53520      0.78750      0.30652  1.0000
  O3          0.24725      0.45665      0.97384  1.0000
  O2          0.21584      0.74705      0.63926  1.0000
  O2          0.47325      0.22286      0.80383  1.0000
  O2          0.75047      0.53385      0.47236  1.0000
  O2          0.77857      0.24797      0.14010  1.0000
  O3          0.22231      0.32342      0.89791  1.0000
  O2          0.67316      0.90692      0.23164  1.0000
  O2          0.09186      0.76659      0.56489  1.0000
  O2          0.76697      0.67679      0.39901  1.0000
  O2          0.32967      0.09939      0.72976  1.0000
  O2          0.90703      0.23086      0.06759  1.0000
  O2          0.32396      0.23285      0.43589  1.0000
  O2          0.89656      0.67222      0.10511  1.0000
  O2          0.77331      0.09227      0.76637  1.0000
  O3          0.68792      0.77110      0.93337  1.0000
  O2          0.09385      0.32202      0.60271  1.0000
  O2          0.22967      0.90952      0.26919  1.0000
  O3          0.57043      0.54787      0.99078  1.0000
  O2          0.44000      0.03125      0.32390  1.0000
  O2          0.97354      0.41234      0.65743  1.0000
  O2          0.41490      0.44112      0.49169  1.0000
  O2          0.56712      0.97625      0.82232  1.0000
  O2          0.01863      0.58230      0.16112  1.0000
  O2          0.55705      0.58908      0.34382  1.0000
  O2          0.02859      0.44018      0.01295  1.0000
  O2          0.41465      0.97260      0.67514  1.0000
  O3          0.45108      0.41579      0.84245  1.0000
  O2          0.97178      0.55797      0.50932  1.0000
  O2          0.58130      0.02596      0.17599  1.0000
  O2          0.57742      0.16517      0.24964  1.0000
  O2          0.83624      0.41754      0.58304  1.0000
  O2          0.58838      0.42895      0.91636  1.0000
  O2          0.42470      0.83920      0.74908  1.0000
  O2          0.15774      0.58009      0.08850  1.0000
  O2          0.41699      0.58327      0.41822  1.0000
  F           0.44915      0.90360      0.24984  1.0000
  F           0.09775      0.54661      0.58345  1.0000
  F           0.43491      0.57340      0.91090  1.0000
  F           0.55589      0.10520      0.74778  1.0000
  F           0.89671      0.45016      0.08504  1.0000
  F           0.54776      0.45198      0.41693  1.0000
