data_cif

_audit_creation_method             'generated by GULP'

_symmetry_space_group_name_H-M     'P 1'
_symmetry_Int_Tables_number        1
_symmetry_cell_setting             triclinic

_cell_length_a                       11.9583
_cell_length_b                       11.9372
_cell_length_c                       29.5130
_cell_angle_alpha                   89.8739
_cell_angle_beta                    90.1029
_cell_angle_gamma                  119.6268

loop_
_atom_site_label
_atom_site_fract_x
_atom_site_fract_y
_atom_site_fract_z
_atom_site_occupancy
  Si          0.69960      0.37570      0.03389  1.0000
  Si          0.62971      0.32670      0.36548  1.0000
  Si          0.68506      0.29782      0.69409  1.0000
  Si          0.30602      0.62218      0.53079  1.0000
  Si          0.38606      0.68108      0.86337  1.0000
  Si          0.33595      0.71070      0.19813  1.0000
  Si          0.38902      0.70670      0.29868  1.0000
  Ge          0.31929      0.62312      0.96620  1.0000
  Si          0.30504      0.67588      0.63126  1.0000
  Si          0.63473      0.30302      0.79476  1.0000
  Si          0.68395      0.38149      0.46571  1.0000
  Si          0.71236      0.33033      0.13550  1.0000
  Ge          0.53496      0.42553      0.96664  1.0000
  Si          0.59126      0.11587      0.30117  1.0000
  Si          0.89672      0.47211      0.63093  1.0000
  Si          0.47835      0.58510      0.46568  1.0000
  Si          0.43150      0.89358      0.79645  1.0000
  Si          0.12311      0.54119      0.13343  1.0000
  Si          0.42637      0.53393      0.36411  1.0000
  Si          0.10861      0.58755      0.03290  1.0000
  Si          0.47879      0.88720      0.69520  1.0000
  Ge          0.59541      0.46844      0.86497  1.0000
  Si          0.89572      0.41942      0.52964  1.0000
  Si          0.53995      0.11958      0.19984  1.0000
  Si          0.30731      0.39721      0.84933  1.0000
  Si          0.61388      0.91164      0.18419  1.0000
  Si          0.10435      0.69952      0.51600  1.0000
  Si          0.70719      0.60506      0.35056  1.0000
  Si          0.40736      0.09758      0.68139  1.0000
  Si          0.90888      0.30583      0.01901  1.0000
  Si          0.40616      0.30400      0.48037  1.0000
  Si          0.91117      0.60944      0.14842  1.0000
  Si          0.71080      0.09982      0.81005  1.0000
  Ge          0.61014      0.70646      0.98486  1.0000
  Si          0.10441      0.39847      0.64623  1.0000
  Si          0.31144      0.90786      0.31462  1.0000
  Si          0.25379      0.33476      0.95210  1.0000
  Si          0.66919      0.91476      0.28487  1.0000
  Si          0.09695      0.74997      0.61647  1.0000
  Si          0.75712      0.66307      0.45111  1.0000
  Si          0.35267      0.09561      0.78214  1.0000
  Si          0.92436      0.26208      0.11969  1.0000
  Si          0.34874      0.25470      0.37973  1.0000
  Si          0.90442      0.66013      0.04780  1.0000
  Si          0.75704      0.08784      0.70949  1.0000
  Si          0.67529      0.75371      0.88218  1.0000
  Si          0.09732      0.34194      0.54561  1.0000
  Si          0.26228      0.91900      0.21415  1.0000
  Si          0.97186      0.12340      0.96626  1.0000
  Si          0.88788      0.85327      0.30063  1.0000
  Si          0.15890      0.02999      0.63175  1.0000
  Si          0.03656      0.88080      0.46585  1.0000
  Si          0.12805      0.15079      0.79883  1.0000
  Si          0.86478      0.98384      0.13511  1.0000
  Si          0.13101      0.97537      0.36533  1.0000
  Si          0.85504      0.89026      0.03466  1.0000
  Si          0.03668      0.15056      0.69734  1.0000
  Si          0.88715      0.03345      0.86414  1.0000
  Si          0.15882      0.12355      0.53090  1.0000
  Si          0.98260      0.85741      0.19991  1.0000
  O2          0.93650      0.00451      0.99932  1.0000
  O2          0.00814      0.93334      0.33352  1.0000
  O2          0.08189      0.07143      0.66589  1.0000
  O2          0.07832      0.00114      0.49900  1.0000
  O2          0.01233      0.06965      0.83365  1.0000
  O2          0.94162      0.94095      0.16882  1.0000
  O2          0.35037      0.58294      0.33123  1.0000
  O2          0.42862      0.76043      0.66361  1.0000
  O3          0.22682      0.66501      0.99884  1.0000
  O3          0.67647      0.42640      0.82538  1.0000
  O2          0.59046      0.24693      0.16849  1.0000
  O2          0.76984      0.34259      0.49783  1.0000
  O3          0.57835      0.33421      0.00331  1.0000
  O2          0.76917      0.42171      0.66206  1.0000
  O2          0.66823      0.24082      0.33351  1.0000
  O2          0.42872      0.66123      0.49814  1.0000
  O2          0.25066      0.59007      0.16484  1.0000
  O2          0.35637      0.76738      0.82854  1.0000
  O2          0.12480      0.20943      0.96931  1.0000
  O2          0.79543      0.91532      0.30536  1.0000
  O2          0.09592      0.87579      0.63666  1.0000
  O2          0.88266      0.78986      0.47094  1.0000
  O2          0.22556      0.09389      0.80249  1.0000
  O2          0.92647      0.13750      0.14090  1.0000
  O2          0.22238      0.12929      0.35971  1.0000
  O2          0.89901      0.78297      0.02692  1.0000
  O2          0.88337      0.08711      0.68982  1.0000
  O2          0.79230      0.88120      0.85866  1.0000
  O2          0.09630      0.21547      0.52517  1.0000
  O2          0.13619      0.91956      0.19411  1.0000
  O2          0.94378      0.86756      0.25073  1.0000
  O2          0.14452      0.07181      0.58169  1.0000
  O2          0.92855      0.07199      0.91565  1.0000
  O2          0.07099      0.13654      0.74880  1.0000
  O2          0.88653      0.94811      0.08497  1.0000
  O2          0.07836      0.93652      0.41585  1.0000
  O2          0.90533      0.20745      0.98016  1.0000
  O2          0.80615      0.70158      0.31252  1.0000
  O2          0.31034      0.09851      0.64311  1.0000
  O2          0.10589      0.79775      0.47757  1.0000
  O2          0.20449      0.30184      0.81182  1.0000
  O2          0.71209      0.91322      0.14575  1.0000
  O2          0.21270      0.90504      0.35305  1.0000
  O3          0.70606      0.82449      0.02464  1.0000
  O2          0.10605      0.30206      0.68500  1.0000
  O2          0.81178      0.10744      0.84828  1.0000
  O2          0.30993      0.20500      0.51860  1.0000
  O2          0.91139      0.70691      0.18677  1.0000
  O2          0.33437      0.65102      0.24815  1.0000
  O2          0.36274      0.67706      0.58116  1.0000
  O3          0.31490      0.66878      0.91035  1.0000
  O2          0.68797      0.35561      0.74401  1.0000
  O2          0.65368      0.32747      0.08586  1.0000
  O2          0.68562      0.32495      0.41571  1.0000
  O3          0.36819      0.31353      0.96847  1.0000
  O2          0.67872      0.04653      0.30379  1.0000
  O2          0.96486      0.62810      0.63479  1.0000
  O2          0.63409      0.67275      0.46914  1.0000
  O2          0.34512      0.96388      0.80100  1.0000
  O2          0.05615      0.38512      0.13747  1.0000
  O2          0.33909      0.37781      0.36145  1.0000
  O2          0.03869      0.67432      0.02974  1.0000
  O2          0.63473      0.95483      0.69202  1.0000
  O3          0.68330      0.63609      0.86030  1.0000
  O2          0.96518      0.33205      0.52707  1.0000
  O2          0.38416      0.05181      0.19628  1.0000
  O2          0.77404      0.30359      0.01309  1.0000
  O2          0.70568      0.46994      0.34315  1.0000
  O2          0.54095      0.23005      0.67277  1.0000
  O2          0.23782      0.69828      0.50878  1.0000
  O2          0.32391      0.53864      0.84109  1.0000
  O2          0.47958      0.77876      0.17609  1.0000
  O2          0.31264      0.77375      0.32125  1.0000
  O1          0.47187      0.71547      0.98630  1.0000
  O2          0.23743      0.53273      0.65383  1.0000
  O2          0.70720      0.23173      0.81745  1.0000
  O2          0.54118      0.30570      0.48819  1.0000
  O2          0.78158      0.47374      0.15759  1.0000
  O2          0.78246      0.53279      0.02810  1.0000
  O2          0.47406      0.25357      0.36025  1.0000
  O2          0.75643      0.21281      0.68902  1.0000
  O2          0.22361      0.46643      0.52616  1.0000
  O2          0.53928      0.74565      0.86973  1.0000
  O2          0.26229      0.79365      0.19405  1.0000
  O2          0.54456      0.78765      0.30392  1.0000
  O3          0.26105      0.46052      0.97450  1.0000
  O2          0.22342      0.75090      0.63615  1.0000
  O2          0.47788      0.22308      0.80081  1.0000
  O2          0.75816      0.53752      0.47097  1.0000
  O2          0.79761      0.25923      0.13963  1.0000
  O2          0.23988      0.33848      0.89742  1.0000
  O2          0.68733      0.91381      0.23062  1.0000
  O2          0.09883      0.76948      0.56224  1.0000
  O2          0.77653      0.67956      0.39691  1.0000
  O2          0.33415      0.09540      0.72786  1.0000
  O2          0.92034      0.23940      0.06553  1.0000
  O2          0.33204      0.23476      0.43398  1.0000
  O2          0.90451      0.67878      0.10213  1.0000
  O2          0.77888      0.09315      0.76361  1.0000
  O3          0.70085      0.77074      0.93531  1.0000
  O2          0.09995      0.32402      0.59989  1.0000
  O2          0.24249      0.91546      0.26840  1.0000
  O1          0.59397      0.56297      0.00090  1.0000
  O2          0.45041      0.03192      0.32423  1.0000
  O2          0.97912      0.41326      0.65480  1.0000
  O2          0.42010      0.44375      0.48894  1.0000
  O2          0.57321      0.97236      0.81941  1.0000
  O2          0.04031      0.60061      0.15630  1.0000
  O2          0.56780      0.59093      0.34152  1.0000
  O2          0.03266      0.44574      0.00882  1.0000
  O2          0.42119      0.97176      0.67246  1.0000
  O3          0.44040      0.40177      0.84254  1.0000
  O2          0.98001      0.56058      0.50673  1.0000
  O2          0.59820      0.03678      0.17620  1.0000
  O2          0.59135      0.17072      0.25076  1.0000
  O2          0.84354      0.42014      0.58031  1.0000
  O1          0.60864      0.41324      0.91667  1.0000
  O2          0.42706      0.83628      0.74620  1.0000
  O2          0.17337      0.59232      0.08223  1.0000
  O2          0.42588      0.58660      0.41490  1.0000
  F           0.46270      0.90997      0.24964  1.0000
  F           0.10374      0.54923      0.58147  1.0000
  F           0.48560      0.53411      0.92523  1.0000
  F           0.55642      0.09564      0.74630  1.0000
  F           0.91891      0.46250      0.08341  1.0000
  F           0.55698      0.45501      0.41576  1.0000
