data_cif

_audit_creation_method             'generated by GULP'

_symmetry_space_group_name_H-M     'P 1'
_symmetry_Int_Tables_number        1
_symmetry_cell_setting             triclinic

_cell_length_a                       12.3127
_cell_length_b                       12.3012
_cell_length_c                       30.1753
_cell_angle_alpha                   90.5214
_cell_angle_beta                    89.1369
_cell_angle_gamma                  119.8969

loop_
_atom_site_label
_atom_site_fract_x
_atom_site_fract_y
_atom_site_fract_z
_atom_site_occupancy
  Ge          0.69960      0.37570      0.03389  1.0000
  Ge          0.62675      0.30945      0.36511  1.0000
  Ge          0.69541      0.31278      0.70004  1.0000
  Ge          0.31812      0.62058      0.53573  1.0000
  Ge          0.37984      0.70887      0.86938  1.0000
  Ge          0.32750      0.70041      0.20423  1.0000
  Ge          0.38588      0.70157      0.30776  1.0000
  Ge          0.33570      0.62890      0.96866  1.0000
  Ge          0.31360      0.68249      0.63986  1.0000
  Ge          0.63351      0.31869      0.80399  1.0000
  Ge          0.68909      0.36810      0.46956  1.0000
  Ge          0.70976      0.33218      0.13409  1.0000
  Ge          0.52912      0.42475      0.96942  1.0000
  Ge          0.57847      0.08799      0.29869  1.0000
  Ge          0.91571      0.48383      0.63295  1.0000
  Ge          0.49346      0.57249      0.46994  1.0000
  Ge          0.43623      0.93114      0.80344  1.0000
  Ge          0.10763      0.52286      0.13976  1.0000
  Ge          0.42864      0.52301      0.36991  1.0000
  Ge          0.11557      0.57747      0.03467  1.0000
  Ge          0.48434      0.90146      0.70427  1.0000
  Ge          0.58110      0.49606      0.86490  1.0000
  Ge          0.90725      0.41709      0.53278  1.0000
  Ge          0.53814      0.11390      0.19838  1.0000
  Ge          0.29085      0.41791      0.85446  1.0000
  Ge          0.61564      0.89712      0.19070  1.0000
  Ge          0.11778      0.71032      0.52117  1.0000
  Ge          0.71953      0.60302      0.35449  1.0000
  Ge          0.40397      0.11311      0.69130  1.0000
  Si          0.89858      0.29312      0.02315  1.0000
  Ge          0.40681      0.29281      0.48891  1.0000
  Ge          0.89738      0.60512      0.15729  1.0000
  Ge          0.71333      0.11656      0.82375  1.0000
  Ge          0.60989      0.71526      0.98905  1.0000
  Ge          0.10668      0.39893      0.65591  1.0000
  Ge          0.30295      0.90484      0.32257  1.0000
  Ge          0.24279      0.34533      0.95878  1.0000
  Si          0.67428      0.90544      0.29284  1.0000
  Ge          0.10371      0.76403      0.62469  1.0000
  Ge          0.77306      0.66168      0.45829  1.0000
  Si          0.34383      0.11585      0.79332  1.0000
  Ge          0.90261      0.23832      0.12556  1.0000
  Si          0.34548      0.24384      0.38657  1.0000
  Ge          0.91112      0.66265      0.05358  1.0000
  Si          0.76221      0.09935      0.72117  1.0000
  Si          0.66323      0.77469      0.88657  1.0000
  Si          0.10502      0.33835      0.55353  1.0000
  Si          0.25751      0.91347      0.21984  1.0000
  Si          0.97175      0.11945      0.97355  1.0000
  Si          0.89568      0.85400      0.30643  1.0000
  Si          0.15696      0.04095      0.64138  1.0000
  Si          0.04835      0.88780      0.47370  1.0000
  Si          0.12002      0.16606      0.80680  1.0000
  Si          0.86409      0.96520      0.14017  1.0000
  Si          0.12223      0.97118      0.37345  1.0000
  Si          0.85911      0.88469      0.03928  1.0000
  Si          0.03660      0.15488      0.70741  1.0000
  Si          0.88848      0.04581      0.87320  1.0000
  Si          0.16099      0.11839      0.54063  1.0000
  Si          0.98342      0.85699      0.20739  1.0000
  O2          0.92482      0.00086      0.00546  1.0000
  O2          0.00645      0.93734      0.34084  1.0000
  O2          0.07260      0.07612      0.67326  1.0000
  O2          0.08244      0.00339      0.50714  1.0000
  O2          0.00612      0.07935      0.84037  1.0000
  O2          0.94714      0.93137      0.17206  1.0000
  O1          0.34611      0.56650      0.33609  1.0000
  O1          0.44640      0.77663      0.66984  1.0000
  O1          0.23809      0.66521      0.00238  1.0000
  O1          0.66849      0.45589      0.83159  1.0000
  O1          0.57075      0.23280      0.16424  1.0000
  O1          0.78639      0.32952      0.49774  1.0000
  O1          0.58425      0.33907      0.99602  1.0000
  O1          0.77600      0.42986      0.66521  1.0000
  O1          0.66430      0.22581      0.33162  1.0000
  O1          0.44149      0.65767      0.50325  1.0000
  O1          0.24104      0.57526      0.17113  1.0000
  O1          0.34706      0.79724      0.83699  1.0000
  O3          0.11841      0.20376      0.97871  1.0000
  O2          0.79112      0.89596      0.31288  1.0000
  O3          0.10879      0.89615      0.64864  1.0000
  O3          0.90481      0.78708      0.48209  1.0000
  O2          0.22808      0.12969      0.81348  1.0000
  O3          0.91166      0.11105      0.14594  1.0000
  O2          0.22392      0.11888      0.36703  1.0000
  O3          0.91670      0.79575      0.03031  1.0000
  O2          0.88860      0.10450      0.70125  1.0000
  O2          0.78495      0.89904      0.86607  1.0000
  O2          0.11324      0.21848      0.53411  1.0000
  O2          0.13151      0.90754      0.20030  1.0000
  O2          0.95483      0.88710      0.25697  1.0000
  O2          0.13595      0.06626      0.59055  1.0000
  O2          0.93736      0.07067      0.92321  1.0000
  O2          0.06590      0.13204      0.75717  1.0000
  O2          0.88567      0.93688      0.08944  1.0000
  O2          0.06994      0.94145      0.42360  1.0000
  O2          0.90550      0.20212      0.98493  1.0000
  O3          0.82848      0.70697      0.31508  1.0000
  O3          0.30301      0.11901      0.65230  1.0000
  O3          0.12779      0.81888      0.48134  1.0000
  O3          0.18183      0.31261      0.81584  1.0000
  O3          0.71775      0.88776      0.15193  1.0000
  O3          0.18818      0.89224      0.36061  1.0000
  O3          0.71195      0.80948      0.03030  1.0000
  O3          0.11403      0.29977      0.69557  1.0000
  O3          0.82591      0.12787      0.86139  1.0000
  O3          0.30594      0.18377      0.52832  1.0000
  O3          0.90556      0.71031      0.19858  1.0000
  O1          0.30925      0.65294      0.25832  1.0000
  O1          0.36194      0.65155      0.59056  1.0000
  O1          0.33900      0.71661      0.92345  1.0000
  O1          0.71108      0.36311      0.75458  1.0000
  O1          0.63480      0.33611      0.08581  1.0000
  O1          0.65918      0.29431      0.41967  1.0000
  O1          0.37145      0.34803      0.98151  1.0000
  O3          0.67517      0.02464      0.31406  1.0000
  O1          0.97438      0.64074      0.64773  1.0000
  O1          0.65071      0.66749      0.48304  1.0000
  O3          0.34132      0.99897      0.81658  1.0000
  O1          0.02467      0.36483      0.15068  1.0000
  O3          0.32709      0.36202      0.37791  1.0000
  O1          0.05284      0.67490      0.04606  1.0000
  O3          0.64577      0.96261      0.71210  1.0000
  O3          0.67910      0.65488      0.87609  1.0000
  O3          0.96923      0.31839      0.54312  1.0000
  O3          0.37439      0.04668      0.20895  1.0000
  O3          0.76146      0.27718      0.02173  1.0000
  O1          0.72563      0.46815      0.35289  1.0000
  O1          0.53741      0.25392      0.68898  1.0000
  O1          0.26004      0.71938      0.52269  1.0000
  O1          0.28205      0.55097      0.85386  1.0000
  O1          0.48198      0.75383      0.19021  1.0000
  O1          0.32461      0.78099      0.33603  1.0000
  O1          0.46916      0.70085      0.00238  1.0000
  O1          0.22970      0.54387      0.66880  1.0000
  O1          0.69439      0.24413      0.83434  1.0000
  O1          0.55059      0.30941      0.49959  1.0000
  O1          0.76777      0.46469      0.16901  1.0000
  O1          0.79901      0.53402      0.02597  1.0000
  O3          0.47077      0.27285      0.36030  1.0000
  O3          0.73369      0.19459      0.69484  1.0000
  O3          0.20288      0.46418      0.52834  1.0000
  O3          0.53863      0.75144      0.86301  1.0000
  O3          0.27887      0.80852      0.19521  1.0000
  O3          0.54908      0.77593      0.30586  1.0000
  O1          0.22545      0.46618      0.97807  1.0000
  O1          0.24276      0.77333      0.63907  1.0000
  O3          0.47010      0.24612      0.80425  1.0000
  O1          0.78063      0.52992      0.47134  1.0000
  O1          0.76365      0.22337      0.14210  1.0000
  O1          0.23663      0.32992      0.90192  1.0000
  O3          0.69612      0.92278      0.23975  1.0000
  O1          0.08746      0.77039      0.56840  1.0000
  O1          0.78095      0.68804      0.40218  1.0000
  O3          0.32189      0.09169      0.74069  1.0000
  O3          0.92471      0.24187      0.06837  1.0000
  O3          0.34870      0.21719      0.43842  1.0000
  O1          0.87747      0.66643      0.10880  1.0000
  O3          0.78911      0.13151      0.77294  1.0000
  O3          0.66536      0.79683      0.93920  1.0000
  O3          0.13110      0.34259      0.60572  1.0000
  O3          0.22878      0.88438      0.27195  1.0000
  O1          0.60893      0.57521      0.99054  1.0000
  O1          0.43811      0.04237      0.32961  1.0000
  O1          0.96706      0.39427      0.66205  1.0000
  O1          0.40495      0.42860      0.49763  1.0000
  O1          0.57653      0.98204      0.83322  1.0000
  O1          0.03619      0.60338      0.15985  1.0000
  O1          0.56919      0.56624      0.34306  1.0000
  O3          0.99591      0.43706      0.01264  1.0000
  O1          0.43956      0.99862      0.67875  1.0000
  O1          0.44301      0.46140      0.84018  1.0000
  O1          0.00825      0.55939      0.50781  1.0000
  O1          0.57454      0.00425      0.17600  1.0000
  O1          0.60969      0.16711      0.24871  1.0000
  O1          0.84437      0.43403      0.58168  1.0000
  O1          0.55185      0.41461      0.91374  1.0000
  O1          0.40943      0.84660      0.75404  1.0000
  O1          0.15629      0.54670      0.08574  1.0000
  O1          0.44328      0.59760      0.41943  1.0000
  F           0.47622      0.92969      0.26537  1.0000
  F           0.08182      0.54844      0.59812  1.0000
  F           0.42582      0.56399      0.93188  1.0000
  F           0.54052      0.08439      0.76634  1.0000
  F           0.87076      0.43179      0.09953  1.0000
  F           0.55728      0.47162      0.43180  1.0000
