data_cif

_audit_creation_method             'generated by GULP'

_symmetry_space_group_name_H-M     'P 1'
_symmetry_Int_Tables_number        1
_symmetry_cell_setting             triclinic

_cell_length_a                       12.3376
_cell_length_b                       12.3161
_cell_length_c                       30.1960
_cell_angle_alpha                   89.3421
_cell_angle_beta                    90.2669
_cell_angle_gamma                  120.0924

loop_
_atom_site_label
_atom_site_fract_x
_atom_site_fract_y
_atom_site_fract_z
_atom_site_occupancy
  Ge          0.69960      0.37570      0.03389  1.0000
  Ge          0.64238      0.32964      0.36562  1.0000
  Ge          0.68395      0.29223      0.70377  1.0000
  Ge          0.31734      0.63094      0.53143  1.0000
  Ge          0.39509      0.67965      0.87097  1.0000
  Ge          0.33414      0.69789      0.19960  1.0000
  Ge          0.39662      0.69577      0.30409  1.0000
  Ge          0.31865      0.63235      0.97021  1.0000
  Ge          0.30853      0.67717      0.63579  1.0000
  Ge          0.64278      0.31114      0.80352  1.0000
  Ge          0.70330      0.38899      0.46961  1.0000
  Ge          0.69825      0.31027      0.13815  1.0000
  Ge          0.52716      0.42916      0.97245  1.0000
  Ge          0.59682      0.10927      0.30224  1.0000
  Ge          0.89722      0.46801      0.63745  1.0000
  Ge          0.49415      0.59110      0.46818  1.0000
  Ge          0.43915      0.89698      0.80495  1.0000
  Ge          0.10972      0.52334      0.13751  1.0000
  Ge          0.44728      0.52248      0.36928  1.0000
  Ge          0.09798      0.57931      0.03682  1.0000
  Ge          0.48998      0.89426      0.69973  1.0000
  Ge          0.59780      0.48478      0.86807  1.0000
  Ge          0.92119      0.43243      0.53613  1.0000
  Ge          0.52599      0.08547      0.20323  1.0000
  Ge          0.30882      0.40622      0.84924  1.0000
  Ge          0.61862      0.90140      0.18186  1.0000
  Ge          0.11262      0.70909      0.51315  1.0000
  Ge          0.72370      0.61428      0.34764  1.0000
  Ge          0.41144      0.10657      0.68043  1.0000
  Ge          0.90470      0.29980      0.01661  1.0000
  Ge          0.41209      0.29768      0.48004  1.0000
  Ge          0.89870      0.60234      0.15077  1.0000
  Si          0.72408      0.11214      0.81532  1.0000
  Ge          0.60794      0.72049      0.98373  1.0000
  Si          0.11105      0.39530      0.64815  1.0000
  Ge          0.30480      0.89576      0.31449  1.0000
  Si          0.24936      0.34935      0.95130  1.0000
  Si          0.67819      0.91222      0.28473  1.0000
  Ge          0.09849      0.75488      0.61724  1.0000
  Si          0.77161      0.67141      0.45026  1.0000
  Ge          0.35441      0.09990      0.78436  1.0000
  Si          0.91321      0.24490      0.11897  1.0000
  Si          0.35298      0.24454      0.37817  1.0000
  Ge          0.90663      0.66720      0.04702  1.0000
  Ge          0.77561      0.09913      0.71300  1.0000
  Ge          0.67836      0.77119      0.87959  1.0000
  Ge          0.10828      0.33923      0.54641  1.0000
  Si          0.24860      0.90156      0.21206  1.0000
  Si          0.97661      0.12813      0.96468  1.0000
  Si          0.90122      0.86255      0.29753  1.0000
  Si          0.16252      0.03385      0.63040  1.0000
  Si          0.04655      0.88821      0.46266  1.0000
  Si          0.13663      0.15859      0.79825  1.0000
  Si          0.86503      0.97183      0.13153  1.0000
  Si          0.13088      0.97178      0.36328  1.0000
  Si          0.85828      0.89487      0.03116  1.0000
  Si          0.04999      0.15208      0.69789  1.0000
  Si          0.90117      0.04401      0.86427  1.0000
  Si          0.16308      0.11629      0.53000  1.0000
  Si          0.97593      0.85240      0.19825  1.0000
  O2          0.94024      0.01151      0.99794  1.0000
  O2          0.01834      0.94663      0.32974  1.0000
  O2          0.10006      0.08707      0.66441  1.0000
  O2          0.08364      0.00092      0.49694  1.0000
  O2          0.01882      0.09367      0.83157  1.0000
  O2          0.94895      0.93734      0.16368  1.0000
  O1          0.35995      0.57151      0.33597  1.0000
  O1          0.43295      0.75653      0.67014  1.0000
  O1          0.23544      0.66569      0.00500  1.0000
  O1          0.68157      0.42865      0.84074  1.0000
  O1          0.57447      0.22198      0.16971  1.0000
  O1          0.78377      0.34890      0.50323  1.0000
  O1          0.56362      0.33800      0.00467  1.0000
  O1          0.78073      0.43028      0.67307  1.0000
  O1          0.67927      0.23230      0.33727  1.0000
  O1          0.45436      0.67366      0.50340  1.0000
  O1          0.23497      0.56287      0.17169  1.0000
  O1          0.35566      0.77664      0.83872  1.0000
  O2          0.12452      0.22744      0.97140  1.0000
  O2          0.79893      0.90677      0.30455  1.0000
  O3          0.09887      0.88640      0.63912  1.0000
  O2          0.89826      0.79077      0.46991  1.0000
  O3          0.22162      0.09671      0.80678  1.0000
  O2          0.90884      0.11871      0.13864  1.0000
  O2          0.23711      0.11760      0.35761  1.0000
  O3          0.90152      0.79474      0.02348  1.0000
  O3          0.90165      0.08419      0.69463  1.0000
  O3          0.81938      0.89663      0.85942  1.0000
  O3          0.11176      0.21138      0.52436  1.0000
  O2          0.12113      0.89125      0.19206  1.0000
  O2          0.95121      0.88612      0.24725  1.0000
  O2          0.13789      0.06308      0.58031  1.0000
  O2          0.94991      0.07931      0.91456  1.0000
  O2          0.08853      0.13773      0.74769  1.0000
  O2          0.88861      0.94687      0.08135  1.0000
  O2          0.07490      0.94409      0.41288  1.0000
  O3          0.89793      0.19349      0.97700  1.0000
  O3          0.83795      0.71768      0.31009  1.0000
  O3          0.30962      0.09920      0.63848  1.0000
  O3          0.12231      0.81813      0.47281  1.0000
  O3          0.21471      0.30523      0.80780  1.0000
  O3          0.72073      0.89036      0.14430  1.0000
  O3          0.19444      0.89001      0.35254  1.0000
  O3          0.71051      0.82766      0.02296  1.0000
  O2          0.10881      0.30042      0.68683  1.0000
  O2          0.81550      0.10674      0.85341  1.0000
  O3          0.30961      0.18891      0.51932  1.0000
  O3          0.89414      0.70532      0.19000  1.0000
  O1          0.36295      0.65176      0.24937  1.0000
  O1          0.36016      0.70304      0.58186  1.0000
  O1          0.30696      0.67310      0.91666  1.0000
  O1          0.68172      0.37181      0.75121  1.0000
  O1          0.65238      0.29920      0.08333  1.0000
  O1          0.71911      0.35963      0.41486  1.0000
  O3          0.36840      0.33255      0.96063  1.0000
  O3          0.69710      0.04800      0.29491  1.0000
  O1          0.95660      0.62919      0.62802  1.0000
  O3          0.65571      0.69187      0.46039  1.0000
  O1          0.34093      0.95796      0.79360  1.0000
  O3          0.04921      0.36259      0.12847  1.0000
  O3          0.35099      0.36132      0.35578  1.0000
  O1          0.03490      0.67407      0.02330  1.0000
  O1          0.64808      0.97568      0.68851  1.0000
  O1          0.67441      0.64274      0.85594  1.0000
  O1          0.98318      0.33726      0.52208  1.0000
  O3          0.36463      0.02185      0.19020  1.0000
  O1          0.77823      0.31735      0.00437  1.0000
  O1          0.70271      0.46856      0.33606  1.0000
  O1          0.55255      0.23430      0.66851  1.0000
  O1          0.23847      0.68969      0.50155  1.0000
  O1          0.32454      0.54765      0.83646  1.0000
  O1          0.47312      0.77510      0.17062  1.0000
  O1          0.29917      0.75540      0.31763  1.0000
  O1          0.47647      0.73121      0.98436  1.0000
  O3          0.24847      0.51771      0.64670  1.0000
  O3          0.74124      0.24981      0.81578  1.0000
  O1          0.54484      0.28947      0.48145  1.0000
  O1          0.75740      0.46758      0.15167  1.0000
  O1          0.76721      0.53740      0.03212  1.0000
  O3          0.47901      0.24153      0.36667  1.0000
  O1          0.79181      0.23747      0.69538  1.0000
  O1          0.24787      0.46913      0.53225  1.0000
  O1          0.55757      0.78978      0.86170  1.0000
  O3          0.24653      0.77372      0.19916  1.0000
  O3          0.55257      0.81396      0.31007  1.0000
  O3          0.27308      0.47284      0.97607  1.0000
  O1          0.20830      0.73263      0.64500  1.0000
  O1          0.48390      0.21283      0.81133  1.0000
  O3          0.74098      0.54476      0.47596  1.0000
  O3          0.81597      0.27191      0.14448  1.0000
  O3          0.22638      0.34976      0.89888  1.0000
  O3          0.67662      0.88479      0.23278  1.0000
  O1          0.13223      0.78861      0.56206  1.0000
  O3          0.79856      0.67038      0.39835  1.0000
  O1          0.35043      0.12808      0.72878  1.0000
  O3          0.88443      0.22102      0.06689  1.0000
  O3          0.33001      0.24138      0.43092  1.0000
  O1          0.92234      0.68971      0.10328  1.0000
  O3          0.77219      0.08107      0.77034  1.0000
  O1          0.69629      0.77469      0.93626  1.0000
  O3          0.08395      0.31621      0.60335  1.0000
  O3          0.24578      0.91698      0.26499  1.0000
  O1          0.56245      0.56743      0.99764  1.0000
  O1          0.45350      0.01051      0.32708  1.0000
  O3          0.01454      0.44114      0.65926  1.0000
  O1          0.44757      0.44661      0.49304  1.0000
  O3          0.57975      0.01743      0.82641  1.0000
  O1          0.01085      0.56401      0.16346  1.0000
  O1          0.58788      0.61478      0.33903  1.0000
  O1          0.04221      0.43611      0.00936  1.0000
  O1          0.41137      0.96641      0.67876  1.0000
  O1          0.44734      0.40513      0.84734  1.0000
  O1          0.97275      0.57458      0.50636  1.0000
  O1          0.61714      0.03691      0.17291  1.0000
  O1          0.58243      0.16852      0.25256  1.0000
  O1          0.84540      0.39895      0.58679  1.0000
  O1          0.60933      0.46166      0.92349  1.0000
  O1          0.46727      0.85170      0.75426  1.0000
  O1          0.16842      0.60094      0.08833  1.0000
  O1          0.41992      0.57709      0.41881  1.0000
  F           0.47512      0.93180      0.23939  1.0000
  F           0.08635      0.53969      0.57038  1.0000
  F           0.45971      0.58750      0.90688  1.0000
  F           0.58467      0.13479      0.73871  1.0000
  F           0.92712      0.47466      0.07355  1.0000
  F           0.54929      0.47067      0.40545  1.0000
