data_cif

_audit_creation_method             'generated by GULP'

_symmetry_space_group_name_H-M     'P 1'
_symmetry_Int_Tables_number        1
_symmetry_cell_setting             triclinic

_cell_length_a                       12.3208
_cell_length_b                       12.3034
_cell_length_c                       30.1080
_cell_angle_alpha                   90.1233
_cell_angle_beta                    90.0718
_cell_angle_gamma                  120.0347

loop_
_atom_site_label
_atom_site_fract_x
_atom_site_fract_y
_atom_site_fract_z
_atom_site_occupancy
  Ge          0.69960      0.37570      0.03389  1.0000
  Ge          0.65037      0.31622      0.36725  1.0000
  Ge          0.69310      0.33855      0.70158  1.0000
  Ge          0.34080      0.65582      0.53799  1.0000
  Ge          0.37005      0.69409      0.87001  1.0000
  Ge          0.33455      0.70182      0.20590  1.0000
  Ge          0.39905      0.70925      0.30951  1.0000
  Ge          0.33151      0.62754      0.96948  1.0000
  Ge          0.31321      0.70109      0.63697  1.0000
  Ge          0.62380      0.31808      0.80062  1.0000
  Ge          0.69747      0.38866      0.46757  1.0000
  Ge          0.71369      0.33264      0.13439  1.0000
  Ge          0.52665      0.42374      0.96895  1.0000
  Ge          0.59277      0.09347      0.29988  1.0000
  Ge          0.91446      0.50767      0.63513  1.0000
  Ge          0.51267      0.59911      0.47481  1.0000
  Ge          0.41800      0.91746      0.80511  1.0000
  Ge          0.11197      0.52450      0.14090  1.0000
  Ge          0.45495      0.53472      0.36993  1.0000
  Ge          0.11494      0.57899      0.03563  1.0000
  Ge          0.48042      0.92523      0.69964  1.0000
  Ge          0.57039      0.48753      0.86346  1.0000
  Ge          0.92423      0.45361      0.52949  1.0000
  Ge          0.54531      0.11433      0.19891  1.0000
  Si          0.28322      0.41227      0.85545  1.0000
  Ge          0.62242      0.89783      0.19159  1.0000
  Ge          0.14355      0.74521      0.52220  1.0000
  Ge          0.74354      0.60981      0.35628  1.0000
  Ge          0.40478      0.14052      0.68943  1.0000
  Si          0.89862      0.29376      0.02339  1.0000
  Ge          0.42444      0.30556      0.49063  1.0000
  Ge          0.90189      0.60603      0.15772  1.0000
  Ge          0.70839      0.12897      0.82278  1.0000
  Ge          0.60610      0.71380      0.98893  1.0000
  Ge          0.12106      0.42468      0.65515  1.0000
  Ge          0.31660      0.91178      0.32401  1.0000
  Ge          0.24051      0.34489      0.95833  1.0000
  Si          0.68677      0.90928      0.29399  1.0000
  Ge          0.12208      0.79473      0.62663  1.0000
  Ge          0.79738      0.67601      0.46120  1.0000
  Ge          0.33843      0.12433      0.79404  1.0000
  Ge          0.90636      0.23929      0.12597  1.0000
  Si          0.36920      0.25384      0.38782  1.0000
  Ge          0.91133      0.66377      0.05373  1.0000
  Si          0.76218      0.12573      0.72062  1.0000
  Si          0.65517      0.76987      0.88630  1.0000
  Si          0.12547      0.37312      0.55280  1.0000
  Si          0.26525      0.91527      0.22100  1.0000
  Si          0.96816      0.11923      0.97278  1.0000
  Si          0.91133      0.86159      0.30666  1.0000
  Si          0.15545      0.06496      0.64013  1.0000
  Si          0.06628      0.91625      0.47364  1.0000
  Si          0.10816      0.16430      0.80740  1.0000
  Si          0.86809      0.96599      0.14022  1.0000
  Si          0.14092      0.98551      0.37297  1.0000
  Si          0.85813      0.88519      0.03900  1.0000
  Si          0.03340      0.17425      0.70669  1.0000
  Si          0.87377      0.04340      0.87302  1.0000
  Si          0.17007      0.14729      0.53978  1.0000
  Si          0.99086      0.85907      0.20728  1.0000
  O2          0.92314      0.00141      0.00509  1.0000
  O2          0.02737      0.95247      0.33866  1.0000
  O2          0.06951      0.09842      0.67140  1.0000
  O2          0.09577      0.03670      0.50378  1.0000
  O2          0.98652      0.08487      0.83792  1.0000
  O2          0.95457      0.93271      0.17114  1.0000
  O1          0.36513      0.57620      0.33913  1.0000
  O1          0.44853      0.79944      0.66925  1.0000
  O1          0.23655      0.66518      0.00286  1.0000
  O1          0.65956      0.45776      0.83002  1.0000
  O1          0.57597      0.23275      0.16455  1.0000
  O1          0.80072      0.35550      0.49905  1.0000
  O1          0.58240      0.33834      0.99618  1.0000
  O1          0.77568      0.45272      0.66361  1.0000
  O1          0.68207      0.23202      0.33194  1.0000
  O1          0.46207      0.68637      0.50328  1.0000
  O1          0.24567      0.57605      0.17292  1.0000
  O1          0.33520      0.77736      0.83336  1.0000
  O3          0.11589      0.20192      0.97650  1.0000
  O2          0.80418      0.89917      0.31378  1.0000
  O3          0.11044      0.92068      0.64811  1.0000
  O3          0.92475      0.81144      0.48307  1.0000
  O3          0.19829      0.10882      0.81452  1.0000
  O3          0.91539      0.11174      0.14645  1.0000
  O2          0.24598      0.13229      0.36657  1.0000
  O3          0.91623      0.79676      0.03044  1.0000
  O2          0.88528      0.12487      0.70075  1.0000
  O2          0.77655      0.89490      0.86586  1.0000
  O2          0.12715      0.25057      0.53233  1.0000
  O2          0.13883      0.90891      0.20094  1.0000
  O2          0.96259      0.89104      0.25632  1.0000
  O2          0.13324      0.08870      0.58883  1.0000
  O2          0.92953      0.06961      0.92253  1.0000
  O2          0.06347      0.14814      0.75623  1.0000
  O2          0.88621      0.93849      0.08917  1.0000
  O2          0.08394      0.95957      0.42220  1.0000
  O2          0.90515      0.20374      0.98493  1.0000
  O3          0.85095      0.71610      0.31726  1.0000
  O3          0.30239      0.14602      0.65015  1.0000
  O3          0.15283      0.85627      0.48343  1.0000
  O2          0.18513      0.31370      0.81875  1.0000
  O3          0.72258      0.88762      0.15280  1.0000
  O3          0.20506      0.90380      0.36205  1.0000
  O3          0.71075      0.80896      0.03016  1.0000
  O3          0.11228      0.32000      0.69603  1.0000
  O3          0.80519      0.12119      0.86365  1.0000
  O3          0.31684      0.20932      0.53078  1.0000
  O3          0.91210      0.71196      0.19888  1.0000
  O1          0.31957      0.65559      0.26034  1.0000
  O1          0.39704      0.69695      0.59082  1.0000
  O1          0.32818      0.70993      0.92249  1.0000
  O1          0.71225      0.39860      0.75401  1.0000
  O1          0.63715      0.33636      0.08598  1.0000
  O1          0.69058      0.30269      0.42086  1.0000
  O1          0.36880      0.34646      0.98106  1.0000
  O3          0.68910      0.02899      0.31497  1.0000
  O1          0.99625      0.66468      0.64888  1.0000
  O1          0.67037      0.67358      0.48589  1.0000
  O1          0.34357      0.00027      0.81795  1.0000
  O1          0.02966      0.36600      0.15124  1.0000
  O3          0.35536      0.37554      0.38017  1.0000
  O1          0.05346      0.67689      0.04635  1.0000
  O3          0.64127      0.99227      0.71262  1.0000
  O3          0.66550      0.64918      0.87538  1.0000
  O3          0.99391      0.36204      0.54322  1.0000
  O3          0.38230      0.04801      0.20975  1.0000
  O3          0.76135      0.27734      0.02193  1.0000
  O1          0.75033      0.47592      0.35380  1.0000
  O1          0.53727      0.28456      0.68782  1.0000
  O1          0.28735      0.75583      0.52151  1.0000
  O3          0.27071      0.53560      0.85556  1.0000
  O1          0.48811      0.75438      0.19161  1.0000
  O1          0.33686      0.78652      0.33780  1.0000
  O1          0.46738      0.70302      0.00278  1.0000
  O1          0.24763      0.56511      0.66957  1.0000
  O1          0.69559      0.25713      0.83523  1.0000
  O1          0.56404      0.31513      0.50213  1.0000
  O1          0.77268      0.46541      0.16941  1.0000
  O1          0.79917      0.53433      0.02597  1.0000
  O3          0.49252      0.27746      0.36260  1.0000
  O3          0.74594      0.23130      0.69528  1.0000
  O3          0.23511      0.49637      0.52940  1.0000
  O3          0.53078      0.75512      0.86333  1.0000
  O3          0.28477      0.80907      0.19686  1.0000
  O3          0.56211      0.78025      0.30793  1.0000
  O1          0.22297      0.46414      0.97847  1.0000
  O1          0.25995      0.81059      0.64559  1.0000
  O1          0.46099      0.26418      0.81100  1.0000
  O1          0.81112      0.55140      0.47784  1.0000
  O1          0.76799      0.22403      0.14247  1.0000
  O3          0.23733      0.33289      0.90068  1.0000
  O3          0.70513      0.92468      0.24071  1.0000
  O1          0.11203      0.80173      0.56974  1.0000
  O1          0.80088      0.69522      0.40441  1.0000
  O1          0.31851      0.10880      0.73719  1.0000
  O3          0.92657      0.24266      0.06868  1.0000
  O3          0.36771      0.22675      0.44010  1.0000
  O1          0.88006      0.66710      0.10907  1.0000
  O3          0.78905      0.15413      0.77296  1.0000
  O3          0.66126      0.79452      0.93905  1.0000
  O3          0.14947      0.37107      0.60544  1.0000
  O3          0.23923      0.88881      0.27336  1.0000
  O1          0.60469      0.57351      0.99117  1.0000
  O1          0.45373      0.04817      0.33061  1.0000
  O1          0.98286      0.42584      0.65625  1.0000
  O1          0.43072      0.44773      0.49457  1.0000
  O1          0.56908      0.99030      0.82551  1.0000
  O1          0.04085      0.60463      0.16070  1.0000
  O1          0.59155      0.56927      0.34346  1.0000
  O3          0.99556      0.43824      0.01330  1.0000
  O1          0.45355      0.03703      0.67546  1.0000
  O3          0.42633      0.45975      0.84263  1.0000
  O1          0.03875      0.59446      0.50698  1.0000
  O1          0.57976      0.00392      0.17657  1.0000
  O1          0.62030      0.16830      0.24910  1.0000
  O1          0.88082      0.48946      0.57989  1.0000
  O1          0.54741      0.41165      0.91365  1.0000
  O1          0.40177      0.88270      0.74992  1.0000
  O1          0.15917      0.55001      0.08678  1.0000
  O1          0.48859      0.61394      0.41954  1.0000
  F           0.48569      0.93034      0.26702  1.0000
  F           0.16007      0.61231      0.59822  1.0000
  F           0.42376      0.56747      0.93304  1.0000
  F           0.55839      0.16254      0.76488  1.0000
  F           0.87391      0.43280      0.10004  1.0000
  F           0.60910      0.45842      0.43363  1.0000
