data_cif

_audit_creation_method             'generated by GULP'

_symmetry_space_group_name_H-M     'P 1'
_symmetry_Int_Tables_number        1
_symmetry_cell_setting             triclinic

_cell_length_a                       12.2853
_cell_length_b                       12.3464
_cell_length_c                       30.1763
_cell_angle_alpha                   90.1734
_cell_angle_beta                    89.9803
_cell_angle_gamma                  119.8744

loop_
_atom_site_label
_atom_site_fract_x
_atom_site_fract_y
_atom_site_fract_z
_atom_site_occupancy
  Ge          0.69960      0.37570      0.03389  1.0000
  Ge          0.65317      0.34062      0.36674  1.0000
  Ge          0.68738      0.31725      0.70162  1.0000
  Ge          0.31255      0.63819      0.53244  1.0000
  Ge          0.37427      0.67941      0.86391  1.0000
  Ge          0.34459      0.71302      0.19757  1.0000
  Ge          0.40507      0.70932      0.30152  1.0000
  Ge          0.30942      0.62074      0.96846  1.0000
  Ge          0.32318      0.70656      0.63687  1.0000
  Ge          0.62022      0.30848      0.80541  1.0000
  Ge          0.70404      0.40043      0.47207  1.0000
  Ge          0.70581      0.31976      0.13876  1.0000
  Ge          0.52092      0.42054      0.97212  1.0000
  Ge          0.60866      0.12158      0.30333  1.0000
  Ge          0.90420      0.49558      0.63713  1.0000
  Ge          0.49106      0.59747      0.46731  1.0000
  Ge          0.41884      0.89692      0.79977  1.0000
  Ge          0.12558      0.53655      0.13236  1.0000
  Ge          0.45031      0.53534      0.36704  1.0000
  Ge          0.08743      0.57205      0.03343  1.0000
  Ge          0.49476      0.92870      0.70099  1.0000
  Ge          0.57459      0.48181      0.87192  1.0000
  Ge          0.92393      0.44793      0.53752  1.0000
  Ge          0.53786      0.09979      0.20411  1.0000
  Ge          0.29712      0.39610      0.84893  1.0000
  Ge          0.62914      0.91505      0.18121  1.0000
  Ge          0.11302      0.72266      0.51350  1.0000
  Ge          0.72863      0.62111      0.34618  1.0000
  Ge          0.40506      0.11598      0.68141  1.0000
  Ge          0.90127      0.29422      0.01199  1.0000
  Si          0.41767      0.31334      0.48162  1.0000
  Ge          0.90815      0.60989      0.14681  1.0000
  Ge          0.71078      0.10753      0.81378  1.0000
  Ge          0.60158      0.71208      0.98325  1.0000
  Ge          0.11945      0.41861      0.64885  1.0000
  Ge          0.31545      0.91012      0.31404  1.0000
  Si          0.24272      0.33894      0.95153  1.0000
  Si          0.68727      0.92298      0.28393  1.0000
  Ge          0.10558      0.77627      0.61785  1.0000
  Ge          0.77656      0.68588      0.45050  1.0000
  Si          0.33997      0.09633      0.78369  1.0000
  Ge          0.92422      0.25310      0.11647  1.0000
  Ge          0.36002      0.25652      0.37947  1.0000
  Si          0.90295      0.66572      0.04469  1.0000
  Si          0.77161      0.11208      0.71208  1.0000
  Ge          0.66659      0.76160      0.87940  1.0000
  Si          0.10779      0.35218      0.54694  1.0000
  Si          0.26005      0.91659      0.21220  1.0000
  Si          0.96914      0.11559      0.96253  1.0000
  Si          0.90458      0.86466      0.29575  1.0000
  Si          0.16238      0.05526      0.63023  1.0000
  Si          0.05394      0.90765      0.46365  1.0000
  Si          0.12209      0.15350      0.79616  1.0000
  Si          0.87337      0.97757      0.13021  1.0000
  Si          0.13495      0.97922      0.36300  1.0000
  Si          0.85269      0.88871      0.03028  1.0000
  Si          0.04724      0.17039      0.69680  1.0000
  Si          0.89022      0.03663      0.86226  1.0000
  Si          0.17175      0.14086      0.52998  1.0000
  Si          0.98509      0.85934      0.19647  1.0000
  O2          0.93389      0.99865      0.99511  1.0000
  O2          0.02045      0.94330      0.32905  1.0000
  O2          0.07890      0.09537      0.66003  1.0000
  O2          0.09917      0.02949      0.49485  1.0000
  O2          0.00444      0.07237      0.82821  1.0000
  O2          0.95538      0.93820      0.16098  1.0000
  O1          0.36582      0.58698      0.33376  1.0000
  O1          0.45116      0.79572      0.66668  1.0000
  O1          0.22038      0.65814      0.99880  1.0000
  O1          0.65850      0.42562      0.84036  1.0000
  O1          0.58309      0.23503      0.17125  1.0000
  O1          0.78548      0.35942      0.50515  1.0000
  O1          0.56069      0.33839      0.00787  1.0000
  O1          0.78292      0.45248      0.67376  1.0000
  O1          0.69350      0.24333      0.33891  1.0000
  O1          0.44662      0.67405      0.50384  1.0000
  O1          0.25137      0.58183      0.16708  1.0000
  O1          0.33330      0.77202      0.83367  1.0000
  O2          0.11601      0.21854      0.97079  1.0000
  O2          0.80630      0.91434      0.30373  1.0000
  O3          0.11039      0.91037      0.63926  1.0000
  O3          0.90735      0.81719      0.47274  1.0000
  O2          0.21910      0.10225      0.80322  1.0000
  O3          0.92493      0.12270      0.13866  1.0000
  O3          0.23215      0.12444      0.35726  1.0000
  O2          0.89100      0.78141      0.02444  1.0000
  O2          0.90000      0.12518      0.69169  1.0000
  O3          0.79453      0.89171      0.85580  1.0000
  O2          0.11325      0.23198      0.52714  1.0000
  O2          0.13254      0.90541      0.19176  1.0000
  O2          0.95540      0.88999      0.24549  1.0000
  O2          0.14948      0.08078      0.57856  1.0000
  O2          0.94562      0.06500      0.91229  1.0000
  O2          0.07528      0.13589      0.74539  1.0000
  O2          0.88998      0.95020      0.07899  1.0000
  O2          0.07949      0.95302      0.41277  1.0000
  O3          0.88873      0.18102      0.97342  1.0000
  O3          0.83732      0.71972      0.30630  1.0000
  O3          0.30693      0.13280      0.64346  1.0000
  O3          0.12547      0.83274      0.47407  1.0000
  O3          0.18823      0.29684      0.80948  1.0000
  O3          0.72814      0.90103      0.14285  1.0000
  O3          0.20690      0.90371      0.35327  1.0000
  O3          0.70499      0.82233      0.02232  1.0000
  O3          0.12455      0.31715      0.68842  1.0000
  O3          0.81801      0.11202      0.85306  1.0000
  O2          0.32059      0.22027      0.51956  1.0000
  O3          0.90698      0.71345      0.18654  1.0000
  O1          0.37466      0.66498      0.24658  1.0000
  O1          0.35921      0.71868      0.58097  1.0000
  O1          0.29848      0.65136      0.91333  1.0000
  O1          0.65292      0.35920      0.75117  1.0000
  O1          0.66115      0.30128      0.08348  1.0000
  O1          0.72456      0.37295      0.41716  1.0000
  O3          0.35999      0.32043      0.96261  1.0000
  O3          0.70813      0.05898      0.29491  1.0000
  O1          0.95963      0.65370      0.62966  1.0000
  O1          0.64925      0.70324      0.46040  1.0000
  O3          0.31895      0.95946      0.79241  1.0000
  O1          0.07038      0.37790      0.12580  1.0000
  O1          0.35526      0.37739      0.35454  1.0000
  O3          0.01890      0.66544      0.02107  1.0000
  O3          0.65695      0.99680      0.68793  1.0000
  O1          0.67248      0.63770      0.85717  1.0000
  O3          0.99068      0.35310      0.52453  1.0000
  O3          0.37619      0.03439      0.19011  1.0000
  O1          0.77501      0.31581      0.00260  1.0000
  O1          0.71102      0.47611      0.33610  1.0000
  O1          0.55134      0.24010      0.67101  1.0000
  O1          0.23408      0.69536      0.50174  1.0000
  O1          0.31772      0.53994      0.83559  1.0000
  O1          0.48295      0.79291      0.16860  1.0000
  O1          0.30675      0.76887      0.31462  1.0000
  O1          0.46676      0.71900      0.98267  1.0000
  O1          0.26350      0.54903      0.64948  1.0000
  O1          0.71888      0.24828      0.81652  1.0000
  O3          0.54187      0.30283      0.48222  1.0000
  O1          0.76567      0.47831      0.15000  1.0000
  O3          0.77342      0.53879      0.03423  1.0000
  O1          0.49109      0.24884      0.36565  1.0000
  O3          0.77676      0.24310      0.70267  1.0000
  O3          0.23801      0.47567      0.53476  1.0000
  O1          0.53612      0.76959      0.86387  1.0000
  O3          0.25538      0.78693      0.20018  1.0000
  O3          0.56085      0.82624      0.30889  1.0000
  O3          0.27091      0.46527      0.97615  1.0000
  O1          0.20752      0.74519      0.64576  1.0000
  O3          0.46407      0.19067      0.81051  1.0000
  O1          0.74571      0.55476      0.47932  1.0000
  O1          0.82444      0.28472      0.14577  1.0000
  O3          0.21923      0.34116      0.89924  1.0000
  O3          0.68615      0.89582      0.23179  1.0000
  O1          0.13361      0.80433      0.56235  1.0000
  O1          0.80825      0.68419      0.39539  1.0000
  O3          0.34445      0.12955      0.73210  1.0000
  O1          0.88776      0.21843      0.06161  1.0000
  O3          0.33946      0.25826      0.43635  1.0000
  O3          0.92726      0.68870      0.09732  1.0000
  O3          0.76978      0.08504      0.76449  1.0000
  O1          0.68876      0.77144      0.93585  1.0000
  O3          0.08956      0.33434      0.59983  1.0000
  O3          0.25877      0.93690      0.26509  1.0000
  O1          0.56267      0.56257      0.99682  1.0000
  O1          0.46461      0.02277      0.32766  1.0000
  O1          0.00824      0.45739      0.66185  1.0000
  O3          0.45410      0.45486      0.49174  1.0000
  O1          0.56120      0.99326      0.82577  1.0000
  O1          0.02399      0.57635      0.15823  1.0000
  O1          0.59267      0.62362      0.33791  1.0000
  O1          0.03683      0.43098      0.00344  1.0000
  O1          0.40309      0.97923      0.67142  1.0000
  O1          0.43236      0.39178      0.84284  1.0000
  O1          0.97324      0.58736      0.50688  1.0000
  O1          0.63164      0.05278      0.17362  1.0000
  O1          0.59317      0.18116      0.25411  1.0000
  O1          0.84454      0.41992      0.58776  1.0000
  O1          0.59817      0.43390      0.92343  1.0000
  O1          0.43676      0.84225      0.74975  1.0000
  O1          0.17659      0.60697      0.08201  1.0000
  O1          0.41877      0.58307      0.41758  1.0000
  F           0.48695      0.94601      0.23910  1.0000
  F           0.08099      0.55612      0.57352  1.0000
  F           0.47405      0.54732      0.90643  1.0000
  F           0.54317      0.07885      0.73878  1.0000
  F           0.93859      0.46787      0.07178  1.0000
  F           0.55754      0.48248      0.40381  1.0000
