data_cif

_audit_creation_method             'generated by GULP'

_symmetry_space_group_name_H-M     'P 1'
_symmetry_Int_Tables_number        1
_symmetry_cell_setting             triclinic

_cell_length_a                       12.3310
_cell_length_b                       12.3162
_cell_length_c                       30.1722
_cell_angle_alpha                   90.5713
_cell_angle_beta                    89.0624
_cell_angle_gamma                  119.8483

loop_
_atom_site_label
_atom_site_fract_x
_atom_site_fract_y
_atom_site_fract_z
_atom_site_occupancy
  Ge          0.69960      0.37570      0.03389  1.0000
  Ge          0.62629      0.30934      0.36524  1.0000
  Ge          0.69470      0.31601      0.69894  1.0000
  Ge          0.31225      0.61585      0.53584  1.0000
  Ge          0.38000      0.70893      0.86964  1.0000
  Ge          0.32623      0.70246      0.20354  1.0000
  Ge          0.38444      0.70329      0.30697  1.0000
  Ge          0.33604      0.62854      0.96888  1.0000
  Ge          0.30389      0.67661      0.63988  1.0000
  Ge          0.63226      0.31801      0.80387  1.0000
  Ge          0.68449      0.36734      0.47015  1.0000
  Ge          0.70954      0.33224      0.13423  1.0000
  Ge          0.52928      0.42495      0.96949  1.0000
  Ge          0.57622      0.08833      0.29928  1.0000
  Ge          0.91784      0.48419      0.63353  1.0000
  Ge          0.48916      0.57013      0.47019  1.0000
  Ge          0.43482      0.93077      0.80385  1.0000
  Ge          0.10675      0.52308      0.13949  1.0000
  Ge          0.42443      0.52518      0.37023  1.0000
  Ge          0.11496      0.57726      0.03435  1.0000
  Ge          0.47746      0.89668      0.70447  1.0000
  Ge          0.58090      0.49618      0.86484  1.0000
  Ge          0.90046      0.41343      0.53422  1.0000
  Ge          0.53613      0.11532      0.19890  1.0000
  Ge          0.29072      0.41792      0.85456  1.0000
  Ge          0.61406      0.89918      0.19033  1.0000
  Ge          0.11242      0.70634      0.52338  1.0000
  Ge          0.71377      0.60013      0.35450  1.0000
  Ge          0.40505      0.11349      0.69035  1.0000
  Si          0.89868      0.29356      0.02295  1.0000
  Ge          0.40279      0.29141      0.49103  1.0000
  Ge          0.89686      0.60509      0.15703  1.0000
  Ge          0.71216      0.11659      0.82512  1.0000
  Ge          0.60987      0.71518      0.98909  1.0000
  Ge          0.10170      0.39277      0.65626  1.0000
  Ge          0.30052      0.90483      0.32231  1.0000
  Ge          0.24299      0.34524      0.95895  1.0000
  Si          0.67200      0.90572      0.29235  1.0000
  Si          0.10110      0.76147      0.62537  1.0000
  Ge          0.76953      0.66093      0.45810  1.0000
  Si          0.34323      0.11671      0.79254  1.0000
  Ge          0.90263      0.23910      0.12543  1.0000
  Ge          0.34072      0.24171      0.38703  1.0000
  Ge          0.91064      0.66243      0.05331  1.0000
  Ge          0.76009      0.09743      0.72068  1.0000
  Si          0.66313      0.77468      0.88647  1.0000
  Si          0.09816      0.33425      0.55351  1.0000
  Si          0.25571      0.91489      0.21959  1.0000
  Si          0.97228      0.11947      0.97393  1.0000
  Si          0.88919      0.84876      0.30612  1.0000
  Si          0.15751      0.03594      0.64062  1.0000
  Si          0.04469      0.88547      0.47467  1.0000
  Si          0.11870      0.16607      0.80689  1.0000
  Si          0.86277      0.96574      0.14021  1.0000
  Si          0.11578      0.96535      0.37334  1.0000
  Si          0.85876      0.88452      0.03941  1.0000
  Si          0.03663      0.14849      0.70674  1.0000
  Si          0.88750      0.04584      0.87395  1.0000
  Si          0.15650      0.11673      0.54146  1.0000
  Si          0.98141      0.85654      0.20737  1.0000
  O2          0.92577      0.00198      0.00628  1.0000
  O2          0.99600      0.92425      0.34228  1.0000
  O2          0.07694      0.06638      0.67587  1.0000
  O2          0.08020      0.00219      0.50762  1.0000
  O2          0.00530      0.08132      0.84094  1.0000
  O2          0.94385      0.93107      0.17266  1.0000
  O1          0.34399      0.56986      0.33593  1.0000
  O1          0.43428      0.77078      0.66996  1.0000
  O1          0.23795      0.66483      0.00235  1.0000
  O1          0.66733      0.45550      0.83121  1.0000
  O1          0.57084      0.23450      0.16471  1.0000
  O1          0.78069      0.32831      0.49859  1.0000
  O1          0.58423      0.33939      0.99616  1.0000
  O1          0.78121      0.43890      0.66674  1.0000
  O1          0.66472      0.22406      0.33266  1.0000
  O1          0.43643      0.65444      0.50381  1.0000
  O1          0.24062      0.57711      0.17056  1.0000
  O1          0.34664      0.79751      0.83770  1.0000
  O3          0.11873      0.20393      0.97887  1.0000
  O2          0.78839      0.89552      0.31213  1.0000
  O2          0.11144      0.88898      0.64566  1.0000
  O3          0.90030      0.78647      0.48198  1.0000
  O2          0.22655      0.12888      0.81268  1.0000
  O3          0.91203      0.11188      0.14551  1.0000
  O3          0.20972      0.11120      0.36523  1.0000
  O3          0.91579      0.79529      0.03016  1.0000
  O3          0.89183      0.09755      0.69825  1.0000
  O2          0.78483      0.89906      0.86617  1.0000
  O2          0.10698      0.21483      0.53386  1.0000
  O2          0.12964      0.90874      0.20019  1.0000
  O2          0.95242      0.88441      0.25727  1.0000
  O2          0.12872      0.06456      0.59150  1.0000
  O2          0.93738      0.06870      0.92383  1.0000
  O2          0.06175      0.13127      0.75781  1.0000
  O2          0.88443      0.93516      0.08977  1.0000
  O2          0.06948      0.93741      0.42439  1.0000
  O2          0.90614      0.20237      0.98495  1.0000
  O3          0.81856      0.70145      0.31379  1.0000
  O3          0.30309      0.11428      0.65059  1.0000
  O3          0.12219      0.81592      0.48440  1.0000
  O3          0.18205      0.31262      0.81595  1.0000
  O3          0.71631      0.89042      0.15152  1.0000
  O3          0.18608      0.88999      0.36072  1.0000
  O3          0.71205      0.81008      0.03010  1.0000
  O3          0.11398      0.29352      0.69436  1.0000
  O3          0.82232      0.12618      0.86374  1.0000
  O3          0.30235      0.18449      0.53121  1.0000
  O3          0.90484      0.71033      0.19825  1.0000
  O1          0.30764      0.65488      0.25760  1.0000
  O1          0.35388      0.64644      0.59081  1.0000
  O1          0.33925      0.71620      0.92373  1.0000
  O1          0.70950      0.35985      0.75444  1.0000
  O1          0.63501      0.33577      0.08586  1.0000
  O1          0.65079      0.29123      0.42064  1.0000
  O1          0.37170      0.34779      0.98135  1.0000
  O3          0.67195      0.02360      0.31419  1.0000
  O3          0.98192      0.64553      0.64732  1.0000
  O1          0.64604      0.66273      0.48352  1.0000
  O3          0.34237      0.00105      0.81610  1.0000
  O1          0.02433      0.36540      0.15064  1.0000
  O1          0.32052      0.36740      0.37812  1.0000
  O1          0.05205      0.67458      0.04555  1.0000
  O1          0.63590      0.95174      0.71109  1.0000
  O3          0.67870      0.65492      0.87568  1.0000
  O3          0.96279      0.31421      0.54262  1.0000
  O3          0.37234      0.04812      0.20883  1.0000
  O3          0.76177      0.27767      0.02151  1.0000
  O1          0.72550      0.46827      0.35406  1.0000
  O1          0.53651      0.25598      0.68756  1.0000
  O1          0.25341      0.71387      0.52260  1.0000
  O1          0.28271      0.55127      0.85391  1.0000
  O1          0.48061      0.75623      0.18959  1.0000
  O1          0.32366      0.78240      0.33561  1.0000
  O1          0.46928      0.70072      0.00252  1.0000
  O1          0.22341      0.53863      0.66888  1.0000
  O1          0.69118      0.24326      0.83504  1.0000
  O1          0.54848      0.31263      0.50139  1.0000
  O1          0.76765      0.46501      0.16893  1.0000
  O1          0.79848      0.53378      0.02592  1.0000
  O1          0.47304      0.27360      0.35807  1.0000
  O1          0.73061      0.19811      0.69179  1.0000
  O3          0.19634      0.46009      0.52850  1.0000
  O3          0.53861      0.75159      0.86303  1.0000
  O3          0.27753      0.81050      0.19479  1.0000
  O3          0.54717      0.77573      0.30472  1.0000
  O1          0.22612      0.46611      0.97844  1.0000
  O3          0.22994      0.76570      0.63769  1.0000
  O3          0.46926      0.24630      0.80353  1.0000
  O1          0.77696      0.52873      0.46986  1.0000
  O1          0.76380      0.22401      0.14210  1.0000
  O1          0.23637      0.33028      0.90207  1.0000
  O3          0.69445      0.92498      0.23932  1.0000
  O3          0.08401      0.76306      0.57245  1.0000
  O1          0.77349      0.68673      0.40209  1.0000
  O3          0.32350      0.09341      0.73986  1.0000
  O3          0.92479      0.24281      0.06826  1.0000
  O1          0.34286      0.21069      0.44207  1.0000
  O1          0.87727      0.66640      0.10857  1.0000
  O1          0.79174      0.13204      0.77570  1.0000
  O3          0.66504      0.79610      0.93915  1.0000
  O3          0.12317      0.33579      0.60565  1.0000
  O3          0.22695      0.88576      0.27169  1.0000
  O1          0.60852      0.57511      0.99072  1.0000
  O1          0.43494      0.04293      0.32977  1.0000
  O1          0.96369      0.39074      0.66396  1.0000
  O1          0.39915      0.42699      0.49808  1.0000
  O1          0.57470      0.98171      0.83354  1.0000
  O1          0.03558      0.60363      0.15971  1.0000
  O1          0.56350      0.56185      0.34321  1.0000
  O3          0.99569      0.43715      0.01224  1.0000
  O1          0.43987      0.99859      0.67853  1.0000
  O1          0.44256      0.46071      0.84037  1.0000
  O1          1.00000      0.55745      0.51000  1.0000
  O1          0.57277      0.00632      0.17619  1.0000
  O1          0.60639      0.16797      0.24943  1.0000
  O1          0.83861      0.42878      0.58355  1.0000
  O1          0.55286      0.41557      0.91379  1.0000
  O1          0.40348      0.84532      0.75462  1.0000
  O1          0.15499      0.54625      0.08545  1.0000
  O1          0.44304      0.60089      0.41985  1.0000
  F           0.47388      0.93076      0.26553  1.0000
  F           0.07343      0.53510      0.59853  1.0000
  F           0.42587      0.56377      0.93202  1.0000
  F           0.54360      0.08312      0.76557  1.0000
  F           0.87075      0.43215      0.09948  1.0000
  F           0.54706      0.46555      0.43165  1.0000
