data_cif

_audit_creation_method             'generated by GULP'

_symmetry_space_group_name_H-M     'P 1'
_symmetry_Int_Tables_number        1
_symmetry_cell_setting             triclinic

_cell_length_a                       12.3145
_cell_length_b                       12.3122
_cell_length_c                       30.0857
_cell_angle_alpha                   90.1153
_cell_angle_beta                    90.2429
_cell_angle_gamma                  119.9697

loop_
_atom_site_label
_atom_site_fract_x
_atom_site_fract_y
_atom_site_fract_z
_atom_site_occupancy
  Ge          0.69960      0.37570      0.03389  1.0000
  Ge          0.65015      0.31706      0.36762  1.0000
  Ge          0.69371      0.33868      0.70185  1.0000
  Ge          0.34425      0.65634      0.54108  1.0000
  Ge          0.36969      0.70303      0.87348  1.0000
  Ge          0.33295      0.69938      0.20794  1.0000
  Ge          0.40081      0.71132      0.31170  1.0000
  Ge          0.33094      0.62625      0.97211  1.0000
  Ge          0.31228      0.69913      0.64004  1.0000
  Ge          0.63092      0.32565      0.80137  1.0000
  Ge          0.69964      0.38807      0.46815  1.0000
  Ge          0.71049      0.33113      0.13453  1.0000
  Ge          0.52670      0.42290      0.96817  1.0000
  Ge          0.59310      0.09520      0.29975  1.0000
  Ge          0.91464      0.50639      0.63538  1.0000
  Ge          0.51591      0.59936      0.47789  1.0000
  Ge          0.42121      0.92753      0.80867  1.0000
  Ge          0.10843      0.52049      0.14373  1.0000
  Ge          0.45555      0.53643      0.37278  1.0000
  Ge          0.11457      0.57605      0.03839  1.0000
  Ge          0.47775      0.92446      0.70304  1.0000
  Ge          0.57256      0.49203      0.86274  1.0000
  Ge          0.92758      0.45412      0.52966  1.0000
  Ge          0.54331      0.11241      0.19856  1.0000
  Ge          0.28076      0.41667      0.85596  1.0000
  Ge          0.62000      0.89534      0.19234  1.0000
  Ge          0.14695      0.74548      0.52355  1.0000
  Ge          0.74380      0.61109      0.35798  1.0000
  Ge          0.40439      0.14127      0.69121  1.0000
  Si          0.89785      0.29189      0.02499  1.0000
  Ge          0.42765      0.30542      0.49235  1.0000
  Ge          0.89835      0.60312      0.15941  1.0000
  Ge          0.71387      0.13539      0.82422  1.0000
  Ge          0.60745      0.71202      0.99005  1.0000
  Ge          0.12000      0.42209      0.65670  1.0000
  Ge          0.31818      0.91416      0.32481  1.0000
  Ge          0.23929      0.34311      0.96032  1.0000
  Si          0.68749      0.91122      0.29483  1.0000
  Ge          0.12188      0.79327      0.62802  1.0000
  Ge          0.80036      0.67576      0.46304  1.0000
  Ge          0.34360      0.13539      0.79594  1.0000
  Ge          0.90251      0.23627      0.12776  1.0000
  Si          0.36969      0.25525      0.38940  1.0000
  Ge          0.91155      0.66237      0.05545  1.0000
  Si          0.76124      0.12518      0.72188  1.0000
  Si          0.65404      0.77258      0.88778  1.0000
  Si          0.12852      0.37332      0.55421  1.0000
  Si          0.26394      0.91335      0.22170  1.0000
  Si          0.96855      0.11821      0.97459  1.0000
  Si          0.91146      0.86255      0.30800  1.0000
  Si          0.15460      0.06322      0.64103  1.0000
  Si          0.06950      0.91617      0.47493  1.0000
  Si          0.10572      0.16767      0.80780  1.0000
  Si          0.86551      0.96357      0.14161  1.0000
  Si          0.14204      0.98680      0.37420  1.0000
  Si          0.85892      0.88376      0.04049  1.0000
  Si          0.03051      0.17009      0.70726  1.0000
  Si          0.87601      0.04500      0.87428  1.0000
  Si          0.17294      0.14732      0.54079  1.0000
  Si          0.98894      0.85670      0.20858  1.0000
  O2          0.92109      0.99807      0.00585  1.0000
  O2          0.02793      0.95347      0.33996  1.0000
  O2          0.06628      0.09577      0.67125  1.0000
  O2          0.09873      0.03745      0.50450  1.0000
  O2          0.98656      0.08063      0.83871  1.0000
  O2          0.95216      0.93022      0.17250  1.0000
  O1          0.36655      0.57975      0.34219  1.0000
  O1          0.44495      0.79654      0.67380  1.0000
  O1          0.23723      0.66329      0.00642  1.0000
  O1          0.66739      0.46508      0.83102  1.0000
  O1          0.57192      0.22965      0.16393  1.0000
  O1          0.80474      0.35549      0.49890  1.0000
  O1          0.58526      0.33883      0.99477  1.0000
  O1          0.77470      0.45040      0.66306  1.0000
  O1          0.68188      0.23471      0.33151  1.0000
  O1          0.46708      0.68672      0.50725  1.0000
  O1          0.24179      0.57157      0.17610  1.0000
  O1          0.33691      0.79245      0.83891  1.0000
  O3          0.11568      0.20146      0.98020  1.0000
  O2          0.80561      0.90206      0.31469  1.0000
  O3          0.11007      0.91931      0.64923  1.0000
  O3          0.92877      0.81046      0.48485  1.0000
  O3          0.20892      0.12860      0.81752  1.0000
  O3          0.91063      0.10852      0.14849  1.0000
  O2          0.24571      0.13399      0.36832  1.0000
  O3          0.91900      0.79692      0.03247  1.0000
  O2          0.88253      0.12202      0.70138  1.0000
  O2          0.77523      0.89762      0.86767  1.0000
  O2          0.13114      0.25152      0.53350  1.0000
  O2          0.13651      0.90554      0.20177  1.0000
  O2          0.96263      0.89010      0.25768  1.0000
  O2          0.13451      0.08713      0.58950  1.0000
  O2          0.93351      0.07187      0.92372  1.0000
  O2          0.06024      0.13973      0.75637  1.0000
  O2          0.88595      0.93895      0.09044  1.0000
  O2          0.08512      0.95825      0.42341  1.0000
  O2          0.90398      0.20146      0.98662  1.0000
  O3          0.85021      0.71738      0.31891  1.0000
  O3          0.30100      0.14520      0.65187  1.0000
  O3          0.15725      0.85744      0.48496  1.0000
  O3          0.16873      0.31503      0.81711  1.0000
  O3          0.71980      0.88396      0.15369  1.0000
  O3          0.20739      0.90655      0.36299  1.0000
  O3          0.71141      0.80489      0.03179  1.0000
  O3          0.10966      0.31633      0.69744  1.0000
  O3          0.81173      0.12704      0.86467  1.0000
  O3          0.31985      0.20871      0.53225  1.0000
  O3          0.90912      0.70958      0.20048  1.0000
  O1          0.32059      0.65582      0.26262  1.0000
  O1          0.39844      0.69724      0.59426  1.0000
  O1          0.33057      0.71533      0.92682  1.0000
  O1          0.71627      0.40255      0.75390  1.0000
  O1          0.63528      0.33610      0.08572  1.0000
  O1          0.69136      0.30252      0.42110  1.0000
  O1          0.37031      0.34733      0.98218  1.0000
  O3          0.69044      0.03185      0.31516  1.0000
  O1          0.99527      0.66302      0.64958  1.0000
  O1          0.67410      0.67354      0.48821  1.0000
  O1          0.34888      0.01275      0.82072  1.0000
  O1          0.02518      0.36216      0.15372  1.0000
  O3          0.35593      0.37717      0.38228  1.0000
  O1          0.05326      0.67421      0.04898  1.0000
  O3          0.63932      0.99211      0.71513  1.0000
  O3          0.66562      0.65274      0.87668  1.0000
  O3          0.99762      0.36290      0.54366  1.0000
  O3          0.38029      0.04540      0.20968  1.0000
  O3          0.76110      0.27672      0.02280  1.0000
  O1          0.74988      0.47704      0.35478  1.0000
  O1          0.53748      0.28436      0.68848  1.0000
  O1          0.29076      0.75578      0.52382  1.0000
  O1          0.26931      0.54933      0.85677  1.0000
  O1          0.48589      0.75198      0.19288  1.0000
  O1          0.33943      0.79009      0.33940  1.0000
  O1          0.46752      0.69662      0.00491  1.0000
  O1          0.24613      0.56203      0.67194  1.0000
  O1          0.70402      0.26558      0.83591  1.0000
  O1          0.56727      0.31395      0.50313  1.0000
  O1          0.76806      0.46289      0.17015  1.0000
  O1          0.79991      0.53428      0.02689  1.0000
  O3          0.49219      0.27878      0.36369  1.0000
  O3          0.74472      0.22998      0.69607  1.0000
  O3          0.23963      0.49715      0.53184  1.0000
  O3          0.52943      0.75876      0.86523  1.0000
  O3          0.28264      0.80593      0.19821  1.0000
  O3          0.56368      0.78292      0.30965  1.0000
  O1          0.22262      0.46336      0.98044  1.0000
  O1          0.25862      0.80834      0.64811  1.0000
  O1          0.46856      0.27533      0.81167  1.0000
  O1          0.81387      0.55063      0.47900  1.0000
  O1          0.76389      0.22170      0.14334  1.0000
  O1          0.22980      0.32781      0.90327  1.0000
  O3          0.70378      0.92358      0.24144  1.0000
  O1          0.11410      0.80102      0.57105  1.0000
  O1          0.80228      0.69562      0.40628  1.0000
  O1          0.32048      0.11488      0.73926  1.0000
  O3          0.92436      0.24033      0.07052  1.0000
  O3          0.36960      0.22786      0.44161  1.0000
  O1          0.87825      0.66508      0.11061  1.0000
  O3          0.79182      0.15672      0.77400  1.0000
  O3          0.65912      0.79561      0.94071  1.0000
  O3          0.14981      0.36944      0.60705  1.0000
  O3          0.23951      0.88924      0.27425  1.0000
  O1          0.60783      0.57292      0.99003  1.0000
  O1          0.45489      0.05104      0.33081  1.0000
  O1          0.98218      0.42423      0.65713  1.0000
  O1          0.43507      0.44785      0.49725  1.0000
  O1          0.57338      0.99885      0.82813  1.0000
  O1          0.03663      0.60030      0.16311  1.0000
  O1          0.59157      0.57162      0.34587  1.0000
  O3          0.99572      0.43617      0.01529  1.0000
  O1          0.44998      0.03491      0.67809  1.0000
  O1          0.43172      0.46606      0.84040  1.0000
  O1          0.04272      0.59523      0.50771  1.0000
  O1          0.57728      0.00106      0.17682  1.0000
  O1          0.61931      0.16808      0.24866  1.0000
  O1          0.88305      0.48930      0.57995  1.0000
  O1          0.54101      0.41080      0.91247  1.0000
  O1          0.40208      0.88688      0.75381  1.0000
  O1          0.15680      0.54576      0.08975  1.0000
  O1          0.48922      0.61407      0.42276  1.0000
  F           0.48580      0.93122      0.26774  1.0000
  F           0.16102      0.61102      0.60019  1.0000
  F           0.41840      0.56505      0.93264  1.0000
  F           0.56189      0.16789      0.76667  1.0000
  F           0.87108      0.43043      0.10138  1.0000
  F           0.61099      0.45856      0.43519  1.0000
