data_cif

_audit_creation_method             'generated by GULP'

_symmetry_space_group_name_H-M     'P 1'
_symmetry_Int_Tables_number        1
_symmetry_cell_setting             triclinic

_cell_length_a                       12.3210
_cell_length_b                       12.3099
_cell_length_c                       30.0612
_cell_angle_alpha                   90.3629
_cell_angle_beta                    90.1856
_cell_angle_gamma                  120.1259

loop_
_atom_site_label
_atom_site_fract_x
_atom_site_fract_y
_atom_site_fract_z
_atom_site_occupancy
  Ge          0.69960      0.37570      0.03389  1.0000
  Ge          0.66422      0.31976      0.36582  1.0000
  Ge          0.70970      0.34689      0.70147  1.0000
  Ge          0.35821      0.66148      0.53869  1.0000
  Ge          0.38230      0.70999      0.87166  1.0000
  Ge          0.34248      0.69796      0.20471  1.0000
  Ge          0.41090      0.71080      0.30874  1.0000
  Ge          0.34344      0.63795      0.97069  1.0000
  Ge          0.32813      0.70592      0.63781  1.0000
  Ge          0.64610      0.33158      0.80104  1.0000
  Ge          0.71381      0.39316      0.46643  1.0000
  Ge          0.72489      0.33428      0.13328  1.0000
  Ge          0.53295      0.43002      0.96780  1.0000
  Ge          0.60579      0.09537      0.29839  1.0000
  Ge          0.93017      0.51303      0.63452  1.0000
  Ge          0.52894      0.60421      0.47486  1.0000
  Ge          0.43529      0.93407      0.80672  1.0000
  Ge          0.11550      0.51719      0.14100  1.0000
  Ge          0.46862      0.53899      0.36974  1.0000
  Ge          0.12500      0.57934      0.03603  1.0000
  Ge          0.49271      0.93221      0.70099  1.0000
  Ge          0.58299      0.49520      0.86225  1.0000
  Ge          0.94099      0.45831      0.52867  1.0000
  Ge          0.55769      0.11237      0.19692  1.0000
  Ge          0.29182      0.42235      0.85473  1.0000
  Ge          0.63117      0.89395      0.18981  1.0000
  Ge          0.16064      0.75034      0.52191  1.0000
  Ge          0.75716      0.61346      0.35529  1.0000
  Ge          0.41979      0.14940      0.68993  1.0000
  Ge          0.90121      0.28972      0.02513  1.0000
  Ge          0.44140      0.31072      0.48994  1.0000
  Ge          0.91106      0.60713      0.15795  1.0000
  Ge          0.72890      0.14103      0.82321  1.0000
  Ge          0.61968      0.72145      0.98867  1.0000
  Ge          0.13582      0.42904      0.65520  1.0000
  Ge          0.32939      0.91405      0.32225  1.0000
  Ge          0.24651      0.35279      0.95920  1.0000
  Si          0.69811      0.90977      0.29271  1.0000
  Ge          0.13806      0.80040      0.62651  1.0000
  Ge          0.81345      0.68032      0.46044  1.0000
  Ge          0.35792      0.14211      0.79479  1.0000
  Si          0.91091      0.23523      0.12787  1.0000
  Si          0.38364      0.25790      0.38704  1.0000
  Ge          0.91881      0.66142      0.05396  1.0000
  Si          0.77667      0.13273      0.72067  1.0000
  Si          0.66587      0.77761      0.88627  1.0000
  Si          0.14220      0.37814      0.55259  1.0000
  Si          0.27648      0.91436      0.21909  1.0000
  Si          0.97651      0.11877      0.97288  1.0000
  Si          0.92442      0.86492      0.30574  1.0000
  Si          0.17041      0.07057      0.63932  1.0000
  Si          0.08318      0.92039      0.47293  1.0000
  Si          0.11904      0.17281      0.80588  1.0000
  Si          0.87779      0.96779      0.13960  1.0000
  Si          0.15514      0.98897      0.37197  1.0000
  Si          0.87320      0.88764      0.03875  1.0000
  Si          0.04559      0.17689      0.70537  1.0000
  Si          0.89004      0.04844      0.87227  1.0000
  Si          0.18731      0.15262      0.53889  1.0000
  Si          0.00352      0.86406      0.20621  1.0000
  O2          0.94204      0.99946      0.00350  1.0000
  O2          0.03987      0.95589      0.33829  1.0000
  O2          0.08045      0.10248      0.66892  1.0000
  O2          0.11285      0.04216      0.50257  1.0000
  O2          0.99853      0.08342      0.83586  1.0000
  O2          0.96857      0.94172      0.17120  1.0000
  O1          0.37765      0.57929      0.33912  1.0000
  O1          0.46128      0.80472      0.67141  1.0000
  O1          0.25042      0.67361      0.00591  1.0000
  O1          0.68070      0.46965      0.83155  1.0000
  O1          0.58812      0.23040      0.16268  1.0000
  O1          0.81765      0.36025      0.49778  1.0000
  O1          0.58402      0.34202      0.99562  1.0000
  O1          0.79132      0.45879      0.66285  1.0000
  O1          0.69520      0.23503      0.33036  1.0000
  O1          0.47985      0.69160      0.50427  1.0000
  O1          0.24863      0.56786      0.17350  1.0000
  O1          0.35013      0.79839      0.83656  1.0000
  O3          0.12135      0.21604      0.98080  1.0000
  O2          0.81668      0.90167      0.31254  1.0000
  O3          0.12729      0.92707      0.64789  1.0000
  O3          0.94185      0.81541      0.48255  1.0000
  O3          0.22323      0.13564      0.81618  1.0000
  O2          0.91356      0.11261      0.14681  1.0000
  O2          0.25973      0.13599      0.36584  1.0000
  O3          0.92683      0.79569      0.03081  1.0000
  O2          0.89762      0.12952      0.69984  1.0000
  O2          0.78748      0.90123      0.86551  1.0000
  O2          0.14429      0.25585      0.53191  1.0000
  O2          0.15034      0.90956      0.19906  1.0000
  O2          0.97774      0.89580      0.25571  1.0000
  O2          0.15040      0.09261      0.58763  1.0000
  O2          0.95125      0.07457      0.92123  1.0000
  O2          0.07585      0.14547      0.75416  1.0000
  O2          0.90241      0.94399      0.08888  1.0000
  O2          0.09983      0.96203      0.42141  1.0000
  O3          0.89634      0.18386      0.98512  1.0000
  O3          0.86374      0.71931      0.31612  1.0000
  O3          0.31671      0.15415      0.65066  1.0000
  O3          0.17026      0.86126      0.48318  1.0000
  O3          0.17994      0.31998      0.81572  1.0000
  O3          0.73306      0.88269      0.15182  1.0000
  O3          0.21869      0.90729      0.36039  1.0000
  O3          0.72520      0.81541      0.03009  1.0000
  O3          0.12550      0.32347      0.69589  1.0000
  O3          0.82626      0.13150      0.86359  1.0000
  O3          0.33421      0.21499      0.53016  1.0000
  O3          0.92222      0.71654      0.19791  1.0000
  O1          0.33186      0.65475      0.25939  1.0000
  O1          0.41352      0.70320      0.59186  1.0000
  O1          0.34343      0.72524      0.92493  1.0000
  O1          0.73192      0.41006      0.75380  1.0000
  O1          0.64152      0.33907      0.08656  1.0000
  O1          0.70599      0.30714      0.41944  1.0000
  O1          0.37669      0.35740      0.98166  1.0000
  O3          0.70211      0.03112      0.31318  1.0000
  O1          0.01165      0.67034      0.64836  1.0000
  O1          0.68725      0.67885      0.48535  1.0000
  O1          0.36279      0.01892      0.81911  1.0000
  O3          0.02682      0.35673      0.15102  1.0000
  O3          0.36984      0.37954      0.37978  1.0000
  O1          0.06112      0.67463      0.04777  1.0000
  O3          0.65421      0.99983      0.71352  1.0000
  O3          0.67598      0.65659      0.87603  1.0000
  O3          0.01082      0.36706      0.54241  1.0000
  O3          0.39423      0.04579      0.20743  1.0000
  O1          0.75667      0.27543      0.02156  1.0000
  O1          0.76346      0.47937      0.35231  1.0000
  O1          0.55350      0.29271      0.68792  1.0000
  O1          0.30450      0.76086      0.52187  1.0000
  O1          0.28145      0.55564      0.85516  1.0000
  O1          0.49522      0.75083      0.18908  1.0000
  O1          0.34824      0.78844      0.33651  1.0000
  O1          0.48059      0.70844      0.00334  1.0000
  O1          0.26271      0.56948      0.67009  1.0000
  O1          0.71951      0.27148      0.83533  1.0000
  O1          0.58105      0.31998      0.50121  1.0000
  O1          0.78299      0.46543      0.16938  1.0000
  O1          0.80521      0.53373      0.02565  1.0000
  O3          0.50615      0.28064      0.36150  1.0000
  O3          0.76082      0.23840      0.69540  1.0000
  O3          0.25273      0.50178      0.52986  1.0000
  O3          0.54170      0.76421      0.86351  1.0000
  O3          0.29220      0.80470      0.19562  1.0000
  O3          0.57411      0.78196      0.30782  1.0000
  O1          0.23161      0.47515      0.97842  1.0000
  O1          0.27521      0.81583      0.64618  1.0000
  O1          0.48335      0.28155      0.81116  1.0000
  O1          0.82753      0.55595      0.47691  1.0000
  O3          0.78160      0.22528      0.14165  1.0000
  O1          0.23825      0.33463      0.90220  1.0000
  O3          0.71307      0.91976      0.23925  1.0000
  O1          0.12876      0.80678      0.56951  1.0000
  O1          0.81604      0.69907      0.40361  1.0000
  O1          0.33566      0.12231      0.73798  1.0000
  O3          0.92988      0.23646      0.07457  1.0000
  O3          0.38338      0.23127      0.43935  1.0000
  O1          0.88752      0.66646      0.10930  1.0000
  O3          0.80715      0.16320      0.77296  1.0000
  O3          0.67189      0.80383      0.93911  1.0000
  O3          0.16458      0.37546      0.60542  1.0000
  O3          0.25111      0.89031      0.27163  1.0000
  O1          0.61747      0.58107      0.98907  1.0000
  O1          0.46702      0.05057      0.32899  1.0000
  O1          0.99815      0.43134      0.65601  1.0000
  O1          0.44786      0.45285      0.49440  1.0000
  O1          0.58734      0.00484      0.82657  1.0000
  O1          0.04737      0.60039      0.16057  1.0000
  O1          0.60484      0.57347      0.34306  1.0000
  O1          0.00879      0.44053      0.01204  1.0000
  O1          0.46548      0.04326      0.67643  1.0000
  O1          0.44244      0.46918      0.83947  1.0000
  O1          0.05587      0.59927      0.50651  1.0000
  O1          0.58896      0.99992      0.17466  1.0000
  O1          0.63249      0.16756      0.24731  1.0000
  O1          0.89696      0.49381      0.57913  1.0000
  O1          0.54900      0.41529      0.91223  1.0000
  O1          0.41644      0.89409      0.75169  1.0000
  O1          0.16366      0.54250      0.08720  1.0000
  O1          0.50250      0.61816      0.41967  1.0000
  F           0.49647      0.92941      0.26574  1.0000
  F           0.17616      0.61713      0.59857  1.0000
  F           0.42941      0.57368      0.93151  1.0000
  F           0.57718      0.17495      0.76584  1.0000
  F           0.87758      0.43130      0.09781  1.0000
  F           0.62451      0.46265      0.43282  1.0000
