data_cif

_audit_creation_method             'generated by GULP'

_symmetry_space_group_name_H-M     'P 1'
_symmetry_Int_Tables_number        1
_symmetry_cell_setting             triclinic

_cell_length_a                       12.3212
_cell_length_b                       12.2962
_cell_length_c                       30.1651
_cell_angle_alpha                   90.8445
_cell_angle_beta                    89.0087
_cell_angle_gamma                  119.8033

loop_
_atom_site_label
_atom_site_fract_x
_atom_site_fract_y
_atom_site_fract_z
_atom_site_occupancy
  Ge          0.69960      0.37570      0.03389  1.0000
  Ge          0.63417      0.30368      0.36288  1.0000
  Ge          0.70222      0.31561      0.69877  1.0000
  Ge          0.32027      0.61501      0.53105  1.0000
  Ge          0.38782      0.70919      0.86685  1.0000
  Ge          0.33646      0.69784      0.19882  1.0000
  Ge          0.39105      0.69323      0.30235  1.0000
  Ge          0.34175      0.63592      0.96664  1.0000
  Ge          0.31996      0.68044      0.63504  1.0000
  Ge          0.63978      0.31535      0.80342  1.0000
  Ge          0.69402      0.36682      0.46760  1.0000
  Ge          0.71655      0.32896      0.13315  1.0000
  Ge          0.52995      0.42872      0.96959  1.0000
  Ge          0.58480      0.07977      0.29718  1.0000
  Ge          0.92160      0.48377      0.63208  1.0000
  Ge          0.49635      0.56887      0.46442  1.0000
  Ge          0.44466      0.92935      0.80031  1.0000
  Ge          0.11580      0.52118      0.13417  1.0000
  Ge          0.43456      0.51588      0.36421  1.0000
  Ge          0.11452      0.57580      0.02887  1.0000
  Ge          0.48979      0.89687      0.70084  1.0000
  Ge          0.58557      0.49288      0.86482  1.0000
  Ge          0.90981      0.41306      0.53182  1.0000
  Ge          0.54724      0.11056      0.19706  1.0000
  Ge          0.29610      0.41654      0.85367  1.0000
  Ge          0.62479      0.89397      0.18749  1.0000
  Ge          0.11925      0.70479      0.51803  1.0000
  Ge          0.72598      0.59615      0.35041  1.0000
  Ge          0.41412      0.11286      0.68838  1.0000
  Ge          0.89726      0.28521      0.01999  1.0000
  Ge          0.41088      0.29078      0.48478  1.0000
  Ge          0.90815      0.60448      0.15243  1.0000
  Ge          0.72116      0.11390      0.82385  1.0000
  Ge          0.61551      0.72105      0.98725  1.0000
  Ge          0.11402      0.39894      0.65293  1.0000
  Ge          0.30875      0.89651      0.31949  1.0000
  Ge          0.24440      0.34960      0.95823  1.0000
  Si          0.67984      0.89671      0.28970  1.0000
  Ge          0.11109      0.76296      0.62133  1.0000
  Ge          0.77620      0.65914      0.45441  1.0000
  Si          0.35105      0.11396      0.79035  1.0000
  Ge          0.90955      0.23580      0.12417  1.0000
  Si          0.35216      0.23757      0.38234  1.0000
  Si          0.91250      0.65738      0.05047  1.0000
  Ge          0.77124      0.09880      0.71923  1.0000
  Si          0.66984      0.77324      0.88453  1.0000
  Si          0.10786      0.33396      0.55070  1.0000
  Si          0.26634      0.91038      0.21693  1.0000
  Si          0.97538      0.11161      0.97119  1.0000
  Si          0.90220      0.84647      0.30302  1.0000
  Si          0.17012      0.04165      0.63757  1.0000
  Si          0.05159      0.88347      0.47015  1.0000
  Si          0.12745      0.16487      0.80418  1.0000
  Si          0.87415      0.96527      0.13788  1.0000
  Si          0.12870      0.96465      0.36995  1.0000
  Si          0.86690      0.88211      0.03728  1.0000
  Si          0.04931      0.15661      0.70394  1.0000
  Si          0.89707      0.04176      0.87120  1.0000
  Si          0.16629      0.11560      0.53703  1.0000
  Si          0.99323      0.85569      0.20382  1.0000
  O2          0.94347      0.99286      0.00203  1.0000
  O2          0.01255      0.93025      0.33752  1.0000
  O2          0.09281      0.08243      0.67048  1.0000
  O2          0.08766      0.99930      0.50393  1.0000
  O2          0.01077      0.07635      0.83632  1.0000
  O2          0.95863      0.93205      0.16906  1.0000
  O1          0.35200      0.55704      0.32965  1.0000
  O1          0.45152      0.77324      0.66546  1.0000
  O1          0.24002      0.67119      0.99900  1.0000
  O1          0.67305      0.45108      0.83203  1.0000
  O1          0.57950      0.23148      0.16415  1.0000
  O1          0.78769      0.32663      0.49708  1.0000
  O1          0.58253      0.34378      0.99762  1.0000
  O1          0.78535      0.43648      0.66554  1.0000
  O1          0.67107      0.21644      0.33076  1.0000
  O1          0.44129      0.65284      0.49732  1.0000
  O1          0.25259      0.57651      0.16369  1.0000
  O1          0.35514      0.79511      0.83343  1.0000
  O3          0.11789      0.21334      0.97965  1.0000
  O2          0.79575      0.88590      0.30975  1.0000
  O3          0.11841      0.89648      0.64518  1.0000
  O3          0.90706      0.78652      0.47789  1.0000
  O2          0.23477      0.12712      0.81052  1.0000
  O3          0.91848      0.10939      0.14592  1.0000
  O2          0.23128      0.11168      0.36294  1.0000
  O2          0.91243      0.78019      0.03026  1.0000
  O3          0.90334      0.10090      0.69633  1.0000
  O2          0.79232      0.89527      0.86356  1.0000
  O2          0.11520      0.21327      0.53126  1.0000
  O2          0.14105      0.90578      0.19744  1.0000
  O2          0.96167      0.88127      0.25368  1.0000
  O2          0.14580      0.06508      0.58701  1.0000
  O2          0.95441      0.06416      0.92006  1.0000
  O2          0.07640      0.13515      0.75422  1.0000
  O2          0.89694      0.94007      0.08664  1.0000
  O2          0.07699      0.93796      0.42019  1.0000
  O3          0.89164      0.17535      0.98092  1.0000
  O3          0.83626      0.69943      0.31131  1.0000
  O3          0.31648      0.11716      0.64780  1.0000
  O3          0.12754      0.81105      0.47781  1.0000
  O3          0.18841      0.31056      0.81488  1.0000
  O3          0.72757      0.88500      0.14887  1.0000
  O3          0.19359      0.88421      0.35742  1.0000
  O3          0.72123      0.81870      0.02731  1.0000
  O3          0.12287      0.30260      0.69309  1.0000
  O3          0.83073      0.12243      0.86261  1.0000
  O3          0.31052      0.18262      0.52419  1.0000
  O3          0.91454      0.71001      0.19309  1.0000
  O1          0.31601      0.64681      0.25252  1.0000
  O1          0.36702      0.64749      0.58568  1.0000
  O1          0.34771      0.72180      0.92070  1.0000
  O1          0.71910      0.35997      0.75436  1.0000
  O1          0.63898      0.33582      0.08625  1.0000
  O1          0.66622      0.29212      0.41774  1.0000
  O1          0.37245      0.35252      0.98131  1.0000
  O3          0.68010      0.01474      0.31206  1.0000
  O1          0.98375      0.64178      0.64586  1.0000
  O1          0.65289      0.66543      0.47816  1.0000
  O3          0.35099      0.99848      0.81350  1.0000
  O1          0.03423      0.36480      0.14735  1.0000
  O3          0.33365      0.35524      0.37279  1.0000
  O3          0.04493      0.66856      0.04195  1.0000
  O1          0.64807      0.95300      0.70884  1.0000
  O3          0.68436      0.65192      0.87539  1.0000
  O3          0.97165      0.31392      0.54120  1.0000
  O3          0.38346      0.04368      0.20719  1.0000
  O1          0.75372      0.27447      0.01851  1.0000
  O1          0.73259      0.46137      0.34965  1.0000
  O1          0.54449      0.25646      0.68783  1.0000
  O1          0.26118      0.71348      0.51887  1.0000
  O1          0.28879      0.55035      0.85240  1.0000
  O1          0.49117      0.75106      0.18578  1.0000
  O1          0.32858      0.77076      0.33150  1.0000
  O1          0.47548      0.70971      0.00023  1.0000
  O1          0.23707      0.54395      0.66488  1.0000
  O1          0.69833      0.23973      0.83428  1.0000
  O1          0.55451      0.30937      0.49674  1.0000
  O1          0.78065      0.46512      0.16606  1.0000
  O3          0.80576      0.53473      0.02604  1.0000
  O3          0.47835      0.26613      0.35690  1.0000
  O1          0.74126      0.19999      0.69096  1.0000
  O3          0.20456      0.45840      0.52485  1.0000
  O3          0.54562      0.74875      0.86042  1.0000
  O3          0.28774      0.80637      0.19130  1.0000
  O3          0.55415      0.76684      0.30140  1.0000
  O1          0.23000      0.47363      0.97639  1.0000
  O1          0.25129      0.77335      0.63421  1.0000
  O3          0.47700      0.24385      0.80159  1.0000
  O1          0.78437      0.52861      0.46879  1.0000
  O1          0.77083      0.22088      0.14181  1.0000
  O1          0.23934      0.33093      0.90144  1.0000
  O3          0.70356      0.91736      0.23679  1.0000
  O1          0.09005      0.76636      0.56525  1.0000
  O1          0.78563      0.68250      0.39812  1.0000
  O3          0.33047      0.08909      0.73764  1.0000
  O1          0.92599      0.22903      0.06753  1.0000
  O3          0.35449      0.21307      0.43441  1.0000
  O3          0.88401      0.65909      0.10278  1.0000
  O1          0.80189      0.13200      0.77446  1.0000
  O3          0.67114      0.79946      0.93696  1.0000
  O3          0.13568      0.33957      0.60277  1.0000
  O3          0.23588      0.87883      0.26879  1.0000
  O1          0.61115      0.57981      0.99005  1.0000
  O1          0.44399      0.03292      0.32775  1.0000
  O1          0.97431      0.39422      0.66016  1.0000
  O1          0.40709      0.42603      0.49252  1.0000
  O1          0.58352      0.97847      0.83087  1.0000
  O1          0.04650      0.60358      0.15494  1.0000
  O1          0.57591      0.55810      0.33821  1.0000
  O1          0.00246      0.43567      0.00550  1.0000
  O1          0.45182      0.99994      0.67576  1.0000
  O1          0.44761      0.45704      0.83986  1.0000
  O1          0.00879      0.55344      0.50574  1.0000
  O1          0.58329      0.00140      0.17361  1.0000
  O1          0.61733      0.16103      0.24774  1.0000
  O1          0.84879      0.43131      0.58112  1.0000
  O1          0.55464      0.41448      0.91420  1.0000
  O1          0.41392      0.84470      0.75064  1.0000
  O1          0.15482      0.54038      0.07939  1.0000
  O1          0.44784      0.59247      0.41344  1.0000
  F           0.48294      0.92292      0.26245  1.0000
  F           0.08730      0.54601      0.59546  1.0000
  F           0.43096      0.56695      0.93093  1.0000
  F           0.55295      0.08210      0.76365  1.0000
  F           0.87544      0.41925      0.09548  1.0000
  F           0.56187      0.46770      0.42776  1.0000
