data_cif

_audit_creation_method             'generated by GULP'

_symmetry_space_group_name_H-M     'P 1'
_symmetry_Int_Tables_number        1
_symmetry_cell_setting             triclinic

_cell_length_a                       12.3059
_cell_length_b                       12.3437
_cell_length_c                       30.0803
_cell_angle_alpha                   90.2598
_cell_angle_beta                    89.6875
_cell_angle_gamma                  119.9600

loop_
_atom_site_label
_atom_site_fract_x
_atom_site_fract_y
_atom_site_fract_z
_atom_site_occupancy
  Ge          0.69960      0.37570      0.03389  1.0000
  Ge          0.67845      0.33887      0.36504  1.0000
  Ge          0.70807      0.34397      0.69826  1.0000
  Ge          0.36024      0.66562      0.53363  1.0000
  Ge          0.38118      0.70518      0.86876  1.0000
  Ge          0.34731      0.68973      0.20059  1.0000
  Ge          0.41738      0.71670      0.29989  1.0000
  Ge          0.34399      0.63167      0.96749  1.0000
  Ge          0.32805      0.70947      0.63256  1.0000
  Ge          0.64610      0.32263      0.79858  1.0000
  Ge          0.72472      0.40768      0.46445  1.0000
  Ge          0.72456      0.33158      0.13330  1.0000
  Ge          0.52745      0.42673      0.96840  1.0000
  Ge          0.62482      0.11380      0.30001  1.0000
  Ge          0.92907      0.51623      0.63263  1.0000
  Ge          0.53305      0.61412      0.46781  1.0000
  Ge          0.43637      0.92688      0.80351  1.0000
  Ge          0.12144      0.51838      0.13592  1.0000
  Ge          0.47777      0.55267      0.36209  1.0000
  Ge          0.11543      0.57176      0.02999  1.0000
  Ge          0.49296      0.92821      0.69796  1.0000
  Ge          0.58733      0.48563      0.86318  1.0000
  Ge          0.94722      0.46459      0.52703  1.0000
  Ge          0.56274      0.10464      0.19437  1.0000
  Ge          0.29738      0.41917      0.85569  1.0000
  Ge          0.63534      0.88678      0.18567  1.0000
  Ge          0.16290      0.75550      0.51843  1.0000
  Ge          0.76904      0.62634      0.35207  1.0000
  Si          0.42660      0.14546      0.68642  1.0000
  Ge          0.89716      0.28315      0.02024  1.0000
  Ge          0.44960      0.32387      0.48512  1.0000
  Ge          0.91604      0.60621      0.15333  1.0000
  Ge          0.72980      0.13445      0.82199  1.0000
  Ge          0.61845      0.71991      0.98867  1.0000
  Ge          0.13806      0.43521      0.65250  1.0000
  Ge          0.33355      0.90860      0.31918  1.0000
  Si          0.24442      0.34828      0.95828  1.0000
  Ge          0.70318      0.90619      0.29042  1.0000
  Ge          0.13680      0.80249      0.62299  1.0000
  Ge          0.81965      0.69302      0.45680  1.0000
  Ge          0.36024      0.13497      0.78914  1.0000
  Ge          0.91305      0.23290      0.12522  1.0000
  Si          0.39595      0.27084      0.38269  1.0000
  Si          0.91686      0.65749      0.05046  1.0000
  Ge          0.78159      0.13033      0.71755  1.0000
  Ge          0.66863      0.77248      0.88429  1.0000
  Si          0.14635      0.38287      0.55010  1.0000
  Si          0.28005      0.90472      0.21668  1.0000
  Si          0.97703      0.11365      0.96965  1.0000
  Si          0.94123      0.87472      0.30282  1.0000
  Si          0.18274      0.07376      0.63628  1.0000
  Si          0.08967      0.92987      0.46952  1.0000
  Si          0.12624      0.17426      0.80290  1.0000
  Si          0.88470      0.96458      0.13643  1.0000
  Si          0.17170      0.00094      0.36906  1.0000
  Si          0.87552      0.88437      0.03617  1.0000
  Si          0.05664      0.18421      0.70190  1.0000
  Si          0.89444      0.04491      0.86945  1.0000
  Si          0.19739      0.16132      0.53584  1.0000
  Si          0.01039      0.86081      0.20240  1.0000
  O2          0.95086      0.99519      0.00022  1.0000
  O2          0.06184      0.96385      0.33297  1.0000
  O2          0.10857      0.12174      0.66691  1.0000
  O2          0.12238      0.04977      0.50044  1.0000
  O2          0.00569      0.08901      0.83331  1.0000
  O2          0.97540      0.93461      0.16618  1.0000
  O1          0.38215      0.58249      0.33220  1.0000
  O1          0.46101      0.80696      0.66528  1.0000
  O1          0.24187      0.66326      0.99974  1.0000
  O1          0.68065      0.45543      0.83150  1.0000
  O1          0.58891      0.22942      0.16479  1.0000
  O1          0.82449      0.37093      0.49556  1.0000
  O1          0.57855      0.34288      0.99861  1.0000
  O1          0.78815      0.46052      0.66048  1.0000
  O1          0.70969      0.25301      0.32808  1.0000
  O1          0.47944      0.69780      0.49742  1.0000
  O1          0.25936      0.57098      0.16461  1.0000
  O1          0.34737      0.79266      0.83375  1.0000
  O2          0.12208      0.22161      0.97666  1.0000
  O3          0.83958      0.91618      0.31190  1.0000
  O3          0.12089      0.92755      0.64291  1.0000
  O3          0.94615      0.82931      0.47829  1.0000
  O3          0.22347      0.12606      0.80943  1.0000
  O3          0.92218      0.10606      0.14625  1.0000
  O2          0.27257      0.14793      0.36241  1.0000
  O2          0.91981      0.78153      0.02966  1.0000
  O3          0.90999      0.12567      0.69388  1.0000
  O3          0.80057      0.90015      0.86055  1.0000
  O2          0.14860      0.26040      0.53010  1.0000
  O2          0.15718      0.90427      0.19586  1.0000
  O2          0.98499      0.89706      0.25122  1.0000
  O2          0.16982      0.10444      0.58519  1.0000
  O2          0.95342      0.06651      0.91873  1.0000
  O2          0.08313      0.15567      0.75158  1.0000
  O2          0.91068      0.94646      0.08486  1.0000
  O2          0.11140      0.97509      0.41815  1.0000
  O3          0.89143      0.17271      0.98165  1.0000
  O3          0.87842      0.72858      0.31305  1.0000
  O2          0.33097      0.14089      0.64809  1.0000
  O3          0.17161      0.86492      0.47935  1.0000
  O3          0.19137      0.31871      0.81594  1.0000
  O3          0.73815      0.87881      0.14671  1.0000
  O3          0.23757      0.92004      0.35983  1.0000
  O3          0.72792      0.81668      0.02850  1.0000
  O3          0.12709      0.33166      0.69386  1.0000
  O3          0.82221      0.12144      0.86343  1.0000
  O3          0.34346      0.22727      0.52561  1.0000
  O3          0.92708      0.71429      0.19339  1.0000
  O1          0.33063      0.63306      0.25339  1.0000
  O1          0.41468      0.70613      0.58663  1.0000
  O1          0.34430      0.72114      0.92224  1.0000
  O1          0.72839      0.40424      0.75086  1.0000
  O1          0.64205      0.33548      0.08667  1.0000
  O1          0.71931      0.32093      0.41751  1.0000
  O3          0.36691      0.35418      0.97963  1.0000
  O1          0.69893      0.03139      0.31342  1.0000
  O1          0.01074      0.67310      0.64574  1.0000
  O1          0.69028      0.68831      0.48050  1.0000
  O1          0.36374      0.01266      0.81419  1.0000
  O1          0.03807      0.36159      0.14853  1.0000
  O3          0.38459      0.39171      0.37454  1.0000
  O3          0.04832      0.66641      0.04166  1.0000
  O1          0.65229      0.98982      0.70907  1.0000
  O1          0.68193      0.64432      0.87529  1.0000
  O3          0.01427      0.37114      0.54019  1.0000
  O3          0.40134      0.03585      0.20763  1.0000
  O1          0.75445      0.27556      0.01828  1.0000
  O1          0.77939      0.49343      0.35026  1.0000
  O3          0.54830      0.28194      0.68568  1.0000
  O1          0.30674      0.76628      0.51819  1.0000
  O1          0.28282      0.54933      0.85423  1.0000
  O1          0.50184      0.74367      0.18477  1.0000
  O1          0.34542      0.78106      0.33293  1.0000
  O1          0.47642      0.70422      0.00221  1.0000
  O1          0.26405      0.57529      0.66619  1.0000
  O1          0.71874      0.26354      0.83379  1.0000
  O1          0.58978      0.33607      0.49811  1.0000
  O1          0.78664      0.46713      0.16649  1.0000
  O3          0.80730      0.53483      0.02667  1.0000
  O3          0.51875      0.28617      0.35800  1.0000
  O1          0.76777      0.24504      0.69075  1.0000
  O3          0.25530      0.50583      0.52642  1.0000
  O1          0.53885      0.75907      0.85858  1.0000
  O3          0.29386      0.79549      0.19296  1.0000
  O1          0.58008      0.76886      0.30880  1.0000
  O3          0.23405      0.46617      0.97450  1.0000
  O1          0.27439      0.81894      0.64179  1.0000
  O1          0.48312      0.27265      0.80632  1.0000
  O1          0.83508      0.56997      0.47400  1.0000
  O1          0.77564      0.22005      0.14319  1.0000
  O3          0.24463      0.33504      0.90473  1.0000
  O1          0.72159      0.91780      0.23348  1.0000
  O1          0.12707      0.80848      0.56597  1.0000
  O1          0.82499      0.71245      0.39997  1.0000
  O3          0.34635      0.11663      0.73166  1.0000
  O1          0.92513      0.22679      0.06820  1.0000
  O3          0.39513      0.24356      0.43509  1.0000
  O3          0.89180      0.66019      0.10301  1.0000
  O1          0.81381      0.15753      0.77323  1.0000
  O1          0.67547      0.80446      0.94020  1.0000
  O3          0.16737      0.38114      0.60284  1.0000
  O3          0.25267      0.88099      0.26930  1.0000
  O1          0.61097      0.57691      0.98905  1.0000
  O1          0.47411      0.04548      0.32094  1.0000
  O1          0.99927      0.43641      0.65375  1.0000
  O1          0.45174      0.46340      0.48791  1.0000
  O1          0.58758      0.99705      0.82364  1.0000
  O1          0.05184      0.60016      0.15617  1.0000
  O1          0.61753      0.58000      0.33814  1.0000
  O1          0.00291      0.43353      0.00606  1.0000
  O3          0.47342      0.04821      0.67576  1.0000
  O1          0.44749      0.46290      0.84093  1.0000
  O1          0.06070      0.60388      0.50387  1.0000
  O1          0.58961      0.99157      0.17086  1.0000
  O1          0.64127      0.14690      0.24469  1.0000
  O1          0.89936      0.49790      0.57710  1.0000
  O1          0.55111      0.40803      0.91383  1.0000
  O1          0.41775      0.88402      0.74877  1.0000
  O1          0.15644      0.53689      0.08063  1.0000
  O1          0.51334      0.63038      0.41272  1.0000
  F           0.48272      0.86917      0.26213  1.0000
  F           0.17745      0.62131      0.59482  1.0000
  F           0.43928      0.57947      0.92929  1.0000
  F           0.58757      0.16831      0.76358  1.0000
  F           0.87781      0.41744      0.09652  1.0000
  F           0.63592      0.47360      0.42793  1.0000
