data_cif

_audit_creation_method             'generated by GULP'

_symmetry_space_group_name_H-M     'P 1'
_symmetry_Int_Tables_number        1
_symmetry_cell_setting             triclinic

_cell_length_a                       12.3366
_cell_length_b                       12.3292
_cell_length_c                       30.1249
_cell_angle_alpha                   90.0378
_cell_angle_beta                    90.0421
_cell_angle_gamma                  119.8258

loop_
_atom_site_label
_atom_site_fract_x
_atom_site_fract_y
_atom_site_fract_z
_atom_site_occupancy
  Ge          0.69960      0.37570      0.03389  1.0000
  Ge          0.64817      0.31443      0.36547  1.0000
  Ge          0.68943      0.33350      0.69965  1.0000
  Ge          0.33580      0.64818      0.53686  1.0000
  Ge          0.37232      0.69692      0.87078  1.0000
  Ge          0.33432      0.70089      0.20478  1.0000
  Ge          0.39924      0.70869      0.30841  1.0000
  Ge          0.33082      0.62021      0.96957  1.0000
  Ge          0.30372      0.68999      0.63573  1.0000
  Ge          0.62349      0.30644      0.79894  1.0000
  Ge          0.69484      0.38595      0.46581  1.0000
  Ge          0.71406      0.33278      0.13436  1.0000
  Ge          0.52176      0.41483      0.96861  1.0000
  Ge          0.59155      0.09165      0.29865  1.0000
  Ge          0.90872      0.50196      0.63343  1.0000
  Ge          0.51004      0.59479      0.47355  1.0000
  Ge          0.41820      0.91793      0.80515  1.0000
  Ge          0.11093      0.52153      0.14101  1.0000
  Ge          0.45292      0.53205      0.36858  1.0000
  Ge          0.11395      0.57493      0.03553  1.0000
  Ge          0.46861      0.91054      0.69967  1.0000
  Ge          0.57555      0.47657      0.86295  1.0000
  Ge          0.92039      0.44827      0.52779  1.0000
  Ge          0.54437      0.11265      0.19764  1.0000
  Ge          0.28830      0.41228      0.85387  1.0000
  Ge          0.62134      0.89633      0.19031  1.0000
  Ge          0.13909      0.73845      0.52036  1.0000
  Ge          0.74126      0.60759      0.35466  1.0000
  Ge          0.40300      0.13339      0.68813  1.0000
  Si          0.89756      0.29173      0.02391  1.0000
  Ge          0.42213      0.30204      0.48876  1.0000
  Ge          0.90196      0.60437      0.15744  1.0000
  Si          0.70589      0.11936      0.82232  1.0000
  Ge          0.60526      0.70508      0.99050  1.0000
  Ge          0.11234      0.41486      0.65372  1.0000
  Ge          0.31640      0.91060      0.32255  1.0000
  Ge          0.23607      0.33552      0.95773  1.0000
  Si          0.68572      0.90769      0.29274  1.0000
  Ge          0.11658      0.78772      0.62473  1.0000
  Ge          0.79449      0.67261      0.45965  1.0000
  Ge          0.33782      0.12363      0.79240  1.0000
  Ge          0.90580      0.23801      0.12643  1.0000
  Si          0.36697      0.25140      0.38591  1.0000
  Ge          0.91199      0.66210      0.05332  1.0000
  Ge          0.75452      0.11339      0.71994  1.0000
  Ge          0.65911      0.76301      0.88629  1.0000
  Si          0.12039      0.36605      0.55128  1.0000
  Si          0.26481      0.91398      0.21956  1.0000
  Si          0.96217      0.11493      0.97224  1.0000
  Si          0.91002      0.85966      0.30548  1.0000
  Si          0.15596      0.05903      0.63776  1.0000
  Si          0.06339      0.91125      0.47190  1.0000
  Si          0.10890      0.16693      0.80514  1.0000
  Si          0.86738      0.96489      0.13945  1.0000
  Si          0.13981      0.98343      0.37145  1.0000
  Si          0.85608      0.88114      0.03884  1.0000
  Si          0.02971      0.16433      0.70467  1.0000
  Si          0.87457      0.03977      0.87111  1.0000
  Si          0.16779      0.14227      0.53766  1.0000
  Si          0.99048      0.85741      0.20625  1.0000
  O2          0.91225      0.99291      0.00288  1.0000
  O2          0.02569      0.94965      0.33746  1.0000
  O2          0.07520      0.09681      0.66954  1.0000
  O2          0.09345      0.03124      0.50215  1.0000
  O2          0.99185      0.09333      0.83803  1.0000
  O2          0.95325      0.93004      0.17000  1.0000
  O1          0.36455      0.57553      0.33795  1.0000
  O1          0.43436      0.78352      0.66992  1.0000
  O1          0.23600      0.65835      0.00296  1.0000
  O1          0.66557      0.44040      0.83219  1.0000
  O1          0.57561      0.23199      0.16378  1.0000
  O1          0.79744      0.35186      0.49724  1.0000
  O1          0.58163      0.33384      0.99631  1.0000
  O1          0.77113      0.44987      0.66221  1.0000
  O1          0.68007      0.23004      0.33045  1.0000
  O1          0.45789      0.67996      0.50251  1.0000
  O1          0.24527      0.57440      0.17252  1.0000
  O1          0.33718      0.78589      0.83663  1.0000
  O3          0.10975      0.19496      0.97672  1.0000
  O2          0.80328      0.89783      0.31243  1.0000
  O3          0.10565      0.91402      0.64570  1.0000
  O3          0.92176      0.80781      0.48104  1.0000
  O3          0.20252      0.11509      0.81397  1.0000
  O3          0.91387      0.10972      0.14658  1.0000
  O2          0.24382      0.13004      0.36508  1.0000
  O3          0.91875      0.79654      0.03055  1.0000
  O3          0.88299      0.10715      0.69848  1.0000
  O3          0.79310      0.89283      0.86449  1.0000
  O2          0.12325      0.24445      0.53067  1.0000
  O2          0.13822      0.90758      0.19980  1.0000
  O2          0.96192      0.88924      0.25525  1.0000
  O2          0.13321      0.08397      0.58674  1.0000
  O2          0.92379      0.07271      0.92143  1.0000
  O2          0.05930      0.13849      0.75449  1.0000
  O2          0.88672      0.94034      0.08812  1.0000
  O2          0.08303      0.95649      0.42070  1.0000
  O2          0.90158      0.20034      0.98569  1.0000
  O3          0.84902      0.71444      0.31602  1.0000
  O3          0.30243      0.13590      0.64747  1.0000
  O3          0.14836      0.84946      0.48165  1.0000
  O3          0.18274      0.31454      0.81321  1.0000
  O3          0.72207      0.88653      0.15169  1.0000
  O3          0.20482      0.90279      0.36049  1.0000
  O3          0.70843      0.79661      0.03257  1.0000
  O3          0.10111      0.31098      0.69508  1.0000
  O2          0.79027      0.10397      0.86076  1.0000
  O3          0.31404      0.20497      0.52844  1.0000
  O3          0.91261      0.71081      0.19826  1.0000
  O1          0.32050      0.65549      0.25926  1.0000
  O1          0.38999      0.68845      0.58986  1.0000
  O1          0.33455      0.71071      0.92423  1.0000
  O1          0.71022      0.39101      0.75267  1.0000
  O1          0.63829      0.33863      0.08614  1.0000
  O1          0.68869      0.30114      0.41902  1.0000
  O1          0.36503      0.34047      0.98167  1.0000
  O3          0.68785      0.02717      0.31359  1.0000
  O1          0.99089      0.65833      0.64697  1.0000
  O1          0.66744      0.67008      0.48434  1.0000
  O1          0.34585      0.00265      0.81732  1.0000
  O1          0.02897      0.36374      0.15168  1.0000
  O3          0.35346      0.37314      0.37811  1.0000
  O1          0.05312      0.67362      0.04552  1.0000
  O1          0.62786      0.97246      0.71078  1.0000
  O1          0.67231      0.63546      0.87534  1.0000
  O3          0.98982      0.35620      0.54107  1.0000
  O3          0.38137      0.04586      0.20800  1.0000
  O3          0.76132      0.27697      0.02286  1.0000
  O1          0.74734      0.47356      0.35193  1.0000
  O1          0.53378      0.27750      0.68554  1.0000
  O1          0.28208      0.74774      0.52005  1.0000
  O1          0.27367      0.54291      0.85482  1.0000
  O1          0.48740      0.75377      0.19010  1.0000
  O1          0.33671      0.78572      0.33657  1.0000
  O1          0.46372      0.68818      0.00385  1.0000
  O1          0.23820      0.55396      0.66818  1.0000
  O3          0.69096      0.23755      0.83341  1.0000
  O1          0.56143      0.31141      0.50021  1.0000
  O1          0.77264      0.46492      0.16933  1.0000
  O1          0.79962      0.53346      0.02569  1.0000
  O3          0.49038      0.27517      0.36083  1.0000
  O1          0.74287      0.22846      0.69260  1.0000
  O3          0.23091      0.48932      0.52857  1.0000
  O1          0.52942      0.75170      0.86120  1.0000
  O3          0.28400      0.80757      0.19563  1.0000
  O3          0.56182      0.77940      0.30702  1.0000
  O1          0.22122      0.45806      0.97620  1.0000
  O1          0.25297      0.80174      0.64402  1.0000
  O1          0.46287      0.26189      0.80866  1.0000
  O1          0.80775      0.54793      0.47631  1.0000
  O1          0.76807      0.22401      0.14284  1.0000
  O1          0.23453      0.32175      0.90080  1.0000
  O3          0.70333      0.92221      0.23947  1.0000
  O1          0.10691      0.79425      0.56783  1.0000
  O1          0.79795      0.69171      0.40291  1.0000
  O1          0.31630      0.10559      0.73571  1.0000
  O3          0.92636      0.24145      0.06921  1.0000
  O3          0.36571      0.22470      0.43818  1.0000
  O1          0.88127      0.66568      0.10865  1.0000
  O3          0.78235      0.14341      0.77634  1.0000
  O1          0.66317      0.79014      0.94234  1.0000
  O3          0.14106      0.36163      0.60401  1.0000
  O3          0.23942      0.88825      0.27197  1.0000
  O1          0.60355      0.56473      0.98987  1.0000
  O1          0.45277      0.04637      0.32932  1.0000
  O1          0.97503      0.41791      0.65444  1.0000
  O1          0.42874      0.44392      0.49329  1.0000
  O3          0.57380      0.99061      0.82183  1.0000
  O1          0.04012      0.60185      0.16080  1.0000
  O1          0.58957      0.56746      0.34211  1.0000
  O3          0.99532      0.43491      0.01324  1.0000
  O1          0.44851      0.02691      0.67548  1.0000
  O1          0.43958      0.46089      0.83973  1.0000
  O1          0.03464      0.58842      0.50530  1.0000
  O1          0.57918      0.00272      0.17529  1.0000
  O1          0.61841      0.16589      0.24788  1.0000
  O1          0.87617      0.48331      0.57815  1.0000
  O1          0.53675      0.39806      0.91325  1.0000
  O1          0.39373      0.87473      0.75069  1.0000
  O1          0.15711      0.54598      0.08684  1.0000
  O1          0.48519      0.60953      0.41841  1.0000
  F           0.48484      0.92877      0.26584  1.0000
  F           0.15357      0.60406      0.59691  1.0000
  F           0.42382      0.56237      0.93081  1.0000
  F           0.55576      0.15723      0.76159  1.0000
  F           0.87421      0.43174      0.10030  1.0000
  F           0.60643      0.45576      0.43212  1.0000
