data_cif

_audit_creation_method             'generated by GULP'

_symmetry_space_group_name_H-M     'P 1'
_symmetry_Int_Tables_number        1
_symmetry_cell_setting             triclinic

_cell_length_a                       12.3402
_cell_length_b                       12.3002
_cell_length_c                       30.1667
_cell_angle_alpha                   90.9287
_cell_angle_beta                    89.3032
_cell_angle_gamma                  119.7750

loop_
_atom_site_label
_atom_site_fract_x
_atom_site_fract_y
_atom_site_fract_z
_atom_site_occupancy
  Ge          0.69960      0.37570      0.03389  1.0000
  Ge          0.62732      0.31830      0.36520  1.0000
  Ge          0.69794      0.33165      0.69992  1.0000
  Ge          0.32602      0.63236      0.53946  1.0000
  Ge          0.36852      0.70243      0.87584  1.0000
  Ge          0.32609      0.70042      0.20747  1.0000
  Ge          0.39073      0.71186      0.31125  1.0000
  Ge          0.33322      0.62328      0.97411  1.0000
  Ge          0.30938      0.68938      0.64352  1.0000
  Ge          0.62943      0.31166      0.79967  1.0000
  Ge          0.69485      0.37627      0.46962  1.0000
  Ge          0.70543      0.33181      0.13436  1.0000
  Ge          0.52692      0.41888      0.96809  1.0000
  Ge          0.57951      0.09631      0.29824  1.0000
  Ge          0.91485      0.49344      0.63220  1.0000
  Ge          0.50160      0.58292      0.47433  1.0000
  Ge          0.42133      0.92674      0.81313  1.0000
  Ge          0.10202      0.51915      0.14476  1.0000
  Ge          0.43232      0.53408      0.37424  1.0000
  Ge          0.11376      0.57365      0.03970  1.0000
  Ge          0.47779      0.91068      0.70887  1.0000
  Ge          0.57322      0.48227      0.86272  1.0000
  Ge          0.91621      0.42833      0.53141  1.0000
  Ge          0.53481      0.11379      0.19759  1.0000
  Ge          0.28539      0.41699      0.85701  1.0000
  Ge          0.61223      0.89617      0.19166  1.0000
  Ge          0.12633      0.72083      0.52169  1.0000
  Ge          0.72110      0.61272      0.35675  1.0000
  Ge          0.40789      0.12859      0.69401  1.0000
  Si          0.89776      0.29064      0.02566  1.0000
  Ge          0.41503      0.30233      0.49075  1.0000
  Ge          0.89227      0.60319      0.15989  1.0000
  Ge          0.71621      0.13065      0.82777  1.0000
  Ge          0.60880      0.70961      0.99197  1.0000
  Ge          0.10401      0.40635      0.65695  1.0000
  Ge          0.30656      0.91527      0.32357  1.0000
  Ge          0.23997      0.33894      0.96075  1.0000
  Si          0.67657      0.91438      0.29401  1.0000
  Ge          0.10507      0.77335      0.62516  1.0000
  Ge          0.77966      0.67038      0.46052  1.0000
  Si          0.34495      0.13036      0.79637  1.0000
  Ge          0.89685      0.23585      0.12828  1.0000
  Si          0.34835      0.25407      0.38851  1.0000
  Ge          0.91086      0.66141      0.05622  1.0000
  Ge          0.76333      0.11339      0.72350  1.0000
  Ge          0.65663      0.76917      0.88805  1.0000
  Si          0.11238      0.34922      0.55457  1.0000
  Si          0.25580      0.91424      0.22066  1.0000
  Si          0.96900      0.11452      0.97536  1.0000
  Si          0.89715      0.86233      0.30822  1.0000
  Si          0.16171      0.05128      0.64201  1.0000
  Si          0.05543      0.89695      0.47480  1.0000
  Si          0.11422      0.16963      0.80786  1.0000
  Si          0.86004      0.96355      0.14237  1.0000
  Si          0.12560      0.98139      0.37480  1.0000
  Si          0.85861      0.88213      0.04175  1.0000
  Si          0.03551      0.16161      0.70768  1.0000
  Si          0.88319      0.04379      0.87474  1.0000
  Si          0.16926      0.12952      0.54142  1.0000
  Si          0.98129      0.85730      0.20929  1.0000
  O2          0.91988      0.99577      0.00708  1.0000
  O2          0.00880      0.94646      0.34248  1.0000
  O2          0.08070      0.09022      0.67368  1.0000
  O2          0.08997      0.01389      0.50794  1.0000
  O2          0.00035      0.08646      0.84113  1.0000
  O2          0.94391      0.93065      0.17408  1.0000
  O1          0.35044      0.57987      0.34114  1.0000
  O1          0.43549      0.77956      0.67751  1.0000
  O1          0.23864      0.66030      0.00875  1.0000
  O1          0.66194      0.45030      0.82924  1.0000
  O1          0.56520      0.23051      0.16303  1.0000
  O1          0.79571      0.33933      0.49618  1.0000
  O1          0.58687      0.33731      0.99475  1.0000
  O1          0.77405      0.44197      0.66218  1.0000
  O1          0.66472      0.23653      0.33053  1.0000
  O1          0.45206      0.66819      0.50902  1.0000
  O1          0.23462      0.57071      0.17657  1.0000
  O1          0.33386      0.79735      0.84505  1.0000
  O3          0.11604      0.19751      0.98013  1.0000
  O2          0.79514      0.90773      0.31385  1.0000
  O3          0.10891      0.90581      0.64865  1.0000
  O3          0.91329      0.79516      0.48385  1.0000
  O2          0.22080      0.13117      0.81496  1.0000
  O3          0.90397      0.10843      0.14918  1.0000
  O2          0.22542      0.12955      0.36920  1.0000
  O3          0.92047      0.79647      0.03340  1.0000
  O3          0.88937      0.10480      0.70021  1.0000
  O3          0.78751      0.89924      0.86515  1.0000
  O2          0.12274      0.23053      0.53482  1.0000
  O2          0.12830      0.90580      0.20151  1.0000
  O2          0.95610      0.89104      0.25887  1.0000
  O2          0.14325      0.07810      0.59116  1.0000
  O2          0.93325      0.06461      0.92501  1.0000
  O2          0.06239      0.13794      0.75785  1.0000
  O2          0.88498      0.93890      0.09152  1.0000
  O2          0.07396      0.94935      0.42481  1.0000
  O2          0.90596      0.19974      0.98741  1.0000
  O3          0.82819      0.71589      0.31736  1.0000
  O3          0.30663      0.12762      0.65379  1.0000
  O3          0.13637      0.82938      0.48212  1.0000
  O3          0.17661      0.31610      0.81746  1.0000
  O3          0.71390      0.88435      0.15343  1.0000
  O3          0.19292      0.90416      0.36149  1.0000
  O3          0.71158      0.80002      0.03412  1.0000
  O3          0.10681      0.30800      0.69759  1.0000
  O3          0.81411      0.12296      0.86753  1.0000
  O3          0.31378      0.19332      0.52958  1.0000
  O3          0.90167      0.71033      0.20098  1.0000
  O1          0.31333      0.65872      0.26190  1.0000
  O1          0.36584      0.66505      0.59482  1.0000
  O1          0.33251      0.71341      0.92987  1.0000
  O1          0.71787      0.38957      0.75325  1.0000
  O1          0.63324      0.33698      0.08548  1.0000
  O1          0.66201      0.30254      0.41945  1.0000
  O1          0.37074      0.34416      0.98223  1.0000
  O3          0.67824      0.03562      0.31397  1.0000
  O1          0.97508      0.65071      0.64711  1.0000
  O1          0.65928      0.67709      0.48637  1.0000
  O3          0.35094      0.01808      0.82100  1.0000
  O1          0.01772      0.36123      0.15466  1.0000
  O3          0.33073      0.37318      0.38105  1.0000
  O1          0.05199      0.67217      0.04995  1.0000
  O1          0.63440      0.96791      0.71778  1.0000
  O1          0.66925      0.64119      0.87626  1.0000
  O3          0.97820      0.33013      0.54230  1.0000
  O3          0.37152      0.04590      0.20833  1.0000
  O3          0.76203      0.27673      0.02293  1.0000
  O1          0.72563      0.47714      0.35387  1.0000
  O1          0.53749      0.27044      0.69013  1.0000
  O1          0.26833      0.72999      0.52450  1.0000
  O1          0.27101      0.54862      0.85842  1.0000
  O1          0.47867      0.75311      0.19184  1.0000
  O1          0.33022      0.79380      0.33837  1.0000
  O1          0.46756      0.69166      0.00713  1.0000
  O1          0.22605      0.55037      0.67132  1.0000
  O1          0.70332      0.26009      0.83718  1.0000
  O1          0.55830      0.31685      0.50035  1.0000
  O1          0.76133      0.46367      0.17014  1.0000
  O1          0.80029      0.53393      0.02735  1.0000
  O3          0.47154      0.28210      0.36140  1.0000
  O1          0.73927      0.21565      0.69397  1.0000
  O3          0.21312      0.47575      0.53122  1.0000
  O1          0.52526      0.75741      0.86467  1.0000
  O3          0.27569      0.80652      0.19725  1.0000
  O3          0.55322      0.78659      0.30882  1.0000
  O1          0.22521      0.46076      0.98126  1.0000
  O1          0.24272      0.78377      0.64217  1.0000
  O3          0.46453      0.26112      0.80873  1.0000
  O1          0.78679      0.53804      0.47255  1.0000
  O1          0.75793      0.22207      0.14334  1.0000
  O1          0.23271      0.32709      0.90376  1.0000
  O3          0.69386      0.92468      0.24074  1.0000
  O1          0.09384      0.78059      0.56867  1.0000
  O1          0.78482      0.69729      0.40463  1.0000
  O3          0.32632      0.10378      0.74353  1.0000
  O3          0.92116      0.23909      0.07121  1.0000
  O3          0.35436      0.22742      0.44011  1.0000
  O1          0.87525      0.66519      0.11118  1.0000
  O1          0.79679      0.14654      0.77861  1.0000
  O1          0.66311      0.79645      0.94431  1.0000
  O3          0.13197      0.35027      0.60723  1.0000
  O3          0.23054      0.89054      0.27306  1.0000
  O1          0.60857      0.56967      0.98931  1.0000
  O1          0.44100      0.05350      0.32960  1.0000
  O1          0.96493      0.40318      0.66129  1.0000
  O1          0.41522      0.43874      0.50110  1.0000
  O1          0.57265      0.99601      0.83208  1.0000
  O1          0.02957      0.59946      0.16402  1.0000
  O1          0.57097      0.57779      0.34652  1.0000
  O3          0.99676      0.43416      0.01606  1.0000
  O1          0.44607      0.01472      0.68237  1.0000
  O1          0.43575      0.46592      0.84158  1.0000
  O1          0.01880      0.56994      0.50719  1.0000
  O1          0.57057      0.00222      0.17626  1.0000
  O1          0.60776      0.17095      0.24775  1.0000
  O1          0.85178      0.44688      0.57965  1.0000
  O1          0.53944      0.40235      0.91245  1.0000
  O1          0.40262      0.87294      0.75942  1.0000
  O1          0.15197      0.54246      0.09096  1.0000
  O1          0.44841      0.60749      0.42440  1.0000
  F           0.47692      0.93542      0.26641  1.0000
  F           0.08885      0.56071      0.59929  1.0000
  F           0.42345      0.56607      0.93325  1.0000
  F           0.57099      0.15467      0.76758  1.0000
  F           0.86729      0.43020      0.10178  1.0000
  F           0.56317      0.48109      0.43423  1.0000
