data_cif

_audit_creation_method             'generated by GULP'

_symmetry_space_group_name_H-M     'P 1'
_symmetry_Int_Tables_number        1
_symmetry_cell_setting             triclinic

_cell_length_a                       12.3288
_cell_length_b                       12.3540
_cell_length_c                       30.2236
_cell_angle_alpha                   89.2957
_cell_angle_beta                    90.2989
_cell_angle_gamma                  119.8777

loop_
_atom_site_label
_atom_site_fract_x
_atom_site_fract_y
_atom_site_fract_z
_atom_site_occupancy
  Ge          0.69960      0.37570      0.03389  1.0000
  Ge          0.64030      0.32303      0.36710  1.0000
  Ge          0.67763      0.28329      0.70499  1.0000
  Ge          0.31106      0.62210      0.53266  1.0000
  Ge          0.38631      0.66817      0.87090  1.0000
  Ge          0.33336      0.69808      0.20009  1.0000
  Ge          0.39572      0.69665      0.30396  1.0000
  Ge          0.30625      0.62311      0.97011  1.0000
  Ge          0.30274      0.66828      0.63719  1.0000
  Ge          0.63536      0.30066      0.80481  1.0000
  Ge          0.69865      0.38356      0.47120  1.0000
  Ge          0.70021      0.31435      0.13830  1.0000
  Ge          0.51932      0.42369      0.97337  1.0000
  Ge          0.59736      0.10623      0.30393  1.0000
  Ge          0.89132      0.46046      0.63910  1.0000
  Ge          0.49002      0.58391      0.47000  1.0000
  Ge          0.43286      0.88673      0.80554  1.0000
  Ge          0.11756      0.52721      0.13500  1.0000
  Ge          0.43967      0.52015      0.37010  1.0000
  Ge          0.08499      0.57053      0.03585  1.0000
  Ge          0.48492      0.88611      0.70033  1.0000
  Ge          0.59008      0.47506      0.86887  1.0000
  Ge          0.91647      0.42646      0.53781  1.0000
  Ge          0.52932      0.09409      0.20396  1.0000
  Ge          0.30045      0.39542      0.85030  1.0000
  Ge          0.61546      0.90355      0.18244  1.0000
  Ge          0.10663      0.70171      0.51472  1.0000
  Ge          0.71712      0.60556      0.34933  1.0000
  Ge          0.40586      0.09794      0.68149  1.0000
  Ge          0.90028      0.29454      0.01300  1.0000
  Ge          0.40698      0.29197      0.48323  1.0000
  Ge          0.90190      0.60248      0.14774  1.0000
  Si          0.71661      0.10149      0.81645  1.0000
  Ge          0.59728      0.71296      0.98395  1.0000
  Si          0.10571      0.38755      0.64954  1.0000
  Ge          0.30555      0.89697      0.31702  1.0000
  Si          0.24089      0.34095      0.95265  1.0000
  Si          0.67711      0.90912      0.28471  1.0000
  Ge          0.09240      0.74647      0.61904  1.0000
  Si          0.76773      0.66512      0.45163  1.0000
  Ge          0.34822      0.09002      0.78530  1.0000
  Ge          0.91621      0.24559      0.11731  1.0000
  Ge          0.34730      0.24045      0.37980  1.0000
  Si          0.90104      0.66439      0.04594  1.0000
  Ge          0.76952      0.09067      0.71411  1.0000
  Ge          0.66967      0.76077      0.87978  1.0000
  Ge          0.10261      0.33161      0.54764  1.0000
  Ge          0.24987      0.90603      0.21384  1.0000
  Si          0.96926      0.11737      0.96440  1.0000
  Si          0.89445      0.85036      0.29780  1.0000
  Si          0.15636      0.02481      0.63176  1.0000
  Si          0.04234      0.88237      0.46409  1.0000
  Si          0.12967      0.14811      0.79919  1.0000
  Si          0.85850      0.96782      0.13133  1.0000
  Si          0.12532      0.96413      0.36448  1.0000
  Si          0.84858      0.88629      0.03152  1.0000
  Si          0.04449      0.14420      0.69886  1.0000
  Si          0.89376      0.03182      0.86463  1.0000
  Si          0.15834      0.10926      0.53190  1.0000
  Si          0.97190      0.84731      0.19763  1.0000
  O2          0.93235      0.99996      0.99752  1.0000
  O2          0.00974      0.92739      0.33105  1.0000
  O2          0.09385      0.07865      0.66540  1.0000
  O2          0.08113      0.99537      0.49823  1.0000
  O2          0.00979      0.08014      0.83134  1.0000
  O2          0.93176      0.92295      0.16413  1.0000
  O1          0.35669      0.57540      0.33736  1.0000
  O1          0.42817      0.74884      0.67089  1.0000
  O1          0.21964      0.65791      0.00253  1.0000
  O1          0.67338      0.41786      0.84191  1.0000
  O1          0.57857      0.23147      0.17131  1.0000
  O1          0.77901      0.34378      0.50500  1.0000
  O1          0.56198      0.33911      0.00674  1.0000
  O1          0.77444      0.42142      0.67463  1.0000
  O1          0.68153      0.22852      0.33868  1.0000
  O1          0.44867      0.66565      0.50491  1.0000
  O1          0.24117      0.56646      0.16990  1.0000
  O1          0.34785      0.76553      0.83843  1.0000
  O2          0.11618      0.21874      0.97245  1.0000
  O2          0.79708      0.90143      0.30395  1.0000
  O3          0.09341      0.87807      0.64073  1.0000
  O2          0.89369      0.78504      0.47088  1.0000
  O3          0.21565      0.08739      0.80778  1.0000
  O3          0.91431      0.11338      0.13950  1.0000
  O3          0.22161      0.10872      0.35654  1.0000
  O2          0.88901      0.78086      0.02590  1.0000
  O3          0.89631      0.07690      0.69577  1.0000
  O3          0.81110      0.88522      0.85998  1.0000
  O3          0.10594      0.20358      0.52607  1.0000
  O3          0.11727      0.89952      0.19036  1.0000
  O2          0.94633      0.87243      0.24791  1.0000
  O2          0.13040      0.05281      0.58170  1.0000
  O2          0.94644      0.06780      0.91445  1.0000
  O2          0.08415      0.12992      0.74841  1.0000
  O2          0.88032      0.94221      0.08078  1.0000
  O2          0.07117      0.93910      0.41456  1.0000
  O3          0.89041      0.18418      0.97443  1.0000
  O3          0.82651      0.70598      0.31016  1.0000
  O3          0.30338      0.09003      0.63967  1.0000
  O3          0.11678      0.81108      0.47459  1.0000
  O3          0.20532      0.29359      0.80954  1.0000
  O3          0.71266      0.89456      0.14249  1.0000
  O3          0.19807      0.88885      0.35688  1.0000
  O3          0.70230      0.82135      0.02248  1.0000
  O2          0.10321      0.29189      0.68782  1.0000
  O2          0.80788      0.09484      0.85441  1.0000
  O3          0.30576      0.18447      0.52312  1.0000
  O3          0.89762      0.70094      0.18803  1.0000
  O1          0.36488      0.65105      0.24935  1.0000
  O1          0.35338      0.69250      0.58324  1.0000
  O1          0.29807      0.66298      0.91619  1.0000
  O1          0.67517      0.36161      0.75263  1.0000
  O1          0.65689      0.29694      0.08294  1.0000
  O1          0.71575      0.35403      0.41662  1.0000
  O3          0.36066      0.32526      0.96298  1.0000
  O3          0.69675      0.04477      0.29480  1.0000
  O1          0.95119      0.62137      0.63023  1.0000
  O3          0.65061      0.68443      0.46114  1.0000
  O1          0.33524      0.94886      0.79444  1.0000
  O1          0.06162      0.36904      0.12727  1.0000
  O1          0.34310      0.36393      0.35589  1.0000
  O3          0.01642      0.66399      0.02264  1.0000
  O1          0.64298      0.96774      0.68940  1.0000
  O1          0.66733      0.63236      0.85706  1.0000
  O1          0.97730      0.33020      0.52368  1.0000
  O1          0.37220      0.03318      0.18975  1.0000
  O1          0.77552      0.31798      0.00269  1.0000
  O1          0.69747      0.46150      0.33756  1.0000
  O1          0.54634      0.22578      0.66977  1.0000
  O1          0.23248      0.68195      0.50318  1.0000
  O1          0.31507      0.53569      0.83705  1.0000
  O1          0.47071      0.78080      0.17053  1.0000
  O1          0.29716      0.75558      0.31615  1.0000
  O1          0.46431      0.72106      0.98503  1.0000
  O3          0.24259      0.50975      0.64862  1.0000
  O3          0.73283      0.23831      0.81748  1.0000
  O1          0.54031      0.28394      0.48273  1.0000
  O1          0.75892      0.47200      0.14897  1.0000
  O3          0.77123      0.53840      0.03514  1.0000
  O1          0.47878      0.23262      0.36649  1.0000
  O1          0.78533      0.22851      0.69656  1.0000
  O1          0.24133      0.46099      0.53289  1.0000
  O1          0.54851      0.77748      0.86096  1.0000
  O1          0.24074      0.76670      0.20080  1.0000
  O3          0.55196      0.81224      0.31025  1.0000
  O3          0.26436      0.46487      0.97661  1.0000
  O1          0.20271      0.72402      0.64645  1.0000
  O1          0.47681      0.20290      0.81235  1.0000
  O3          0.73681      0.53909      0.47744  1.0000
  O1          0.81578      0.27591      0.14610  1.0000
  O3          0.21951      0.34000      0.90016  1.0000
  O3          0.67328      0.88256      0.23267  1.0000
  O1          0.12521      0.77951      0.56382  1.0000
  O3          0.79309      0.66155      0.39973  1.0000
  O1          0.34413      0.11835      0.72978  1.0000
  O1          0.88227      0.21464      0.06233  1.0000
  O1          0.32038      0.23336      0.43584  1.0000
  O3          0.92544      0.68530      0.09849  1.0000
  O3          0.76566      0.07225      0.77137  1.0000
  O1          0.68525      0.76720      0.93652  1.0000
  O3          0.08017      0.31001      0.60460  1.0000
  O1          0.24546      0.92629      0.26989  1.0000
  O1          0.55483      0.56157      0.99809  1.0000
  O1          0.45618      0.00711      0.32966  1.0000
  O3          0.00844      0.43252      0.66058  1.0000
  O1          0.44593      0.44194      0.49573  1.0000
  O3          0.57276      0.00617      0.82737  1.0000
  O1          0.01484      0.56567      0.16021  1.0000
  O1          0.58254      0.60950      0.34170  1.0000
  O1          0.03593      0.43136      0.00560  1.0000
  O1          0.40675      0.95871      0.67939  1.0000
  O1          0.43983      0.39586      0.84813  1.0000
  O1          0.96750      0.56790      0.50783  1.0000
  O1          0.61984      0.04266      0.17545  1.0000
  O1          0.58078      0.16725      0.25483  1.0000
  O1          0.83989      0.39334      0.58830  1.0000
  O1          0.59995      0.45188      0.92441  1.0000
  O1          0.46204      0.84329      0.75475  1.0000
  O1          0.16968      0.60225      0.08517  1.0000
  O1          0.41456      0.56957      0.42084  1.0000
  F           0.46689      0.93021      0.23993  1.0000
  F           0.07995      0.53135      0.57179  1.0000
  F           0.45181      0.57810      0.90722  1.0000
  F           0.57837      0.12590      0.73977  1.0000
  F           0.93292      0.46353      0.07289  1.0000
  F           0.53849      0.45579      0.40645  1.0000
