data_cif

_audit_creation_method             'generated by GULP'

_symmetry_space_group_name_H-M     'P 1'
_symmetry_Int_Tables_number        1
_symmetry_cell_setting             triclinic

_cell_length_a                       12.3265
_cell_length_b                       12.3519
_cell_length_c                       30.2127
_cell_angle_alpha                   89.1490
_cell_angle_beta                    90.4718
_cell_angle_gamma                  119.6934

loop_
_atom_site_label
_atom_site_fract_x
_atom_site_fract_y
_atom_site_fract_z
_atom_site_occupancy
  Ge          0.69960      0.37570      0.03389  1.0000
  Ge          0.64444      0.32201      0.36670  1.0000
  Ge          0.67631      0.28897      0.70267  1.0000
  Ge          0.30907      0.61901      0.52929  1.0000
  Ge          0.38644      0.66744      0.86771  1.0000
  Ge          0.33467      0.70016      0.19753  1.0000
  Ge          0.39589      0.69455      0.30168  1.0000
  Ge          0.30624      0.62802      0.96712  1.0000
  Ge          0.31124      0.67552      0.63329  1.0000
  Ge          0.63386      0.30132      0.80283  1.0000
  Ge          0.70377      0.38316      0.47122  1.0000
  Ge          0.70360      0.31493      0.13816  1.0000
  Ge          0.52126      0.42337      0.97157  1.0000
  Ge          0.59793      0.10405      0.30416  1.0000
  Ge          0.89109      0.46224      0.63757  1.0000
  Ge          0.49061      0.58029      0.46725  1.0000
  Ge          0.43448      0.88705      0.80193  1.0000
  Ge          0.12079      0.52744      0.13185  1.0000
  Ge          0.44185      0.51750      0.36723  1.0000
  Ge          0.08514      0.57055      0.03257  1.0000
  Ge          0.48896      0.89391      0.69672  1.0000
  Ge          0.58977      0.47557      0.86719  1.0000
  Ge          0.92410      0.42835      0.53726  1.0000
  Ge          0.53130      0.09600      0.20403  1.0000
  Ge          0.29941      0.39460      0.84621  1.0000
  Ge          0.61689      0.90565      0.18158  1.0000
  Ge          0.10712      0.70288      0.51223  1.0000
  Ge          0.72054      0.60376      0.34824  1.0000
  Ge          0.40501      0.10265      0.67920  1.0000
  Ge          0.89864      0.29405      0.01179  1.0000
  Ge          0.41052      0.28997      0.48205  1.0000
  Ge          0.90600      0.60296      0.14649  1.0000
  Si          0.71726      0.10288      0.81370  1.0000
  Ge          0.59449      0.71164      0.98202  1.0000
  Ge          0.11169      0.39033      0.64628  1.0000
  Ge          0.30637      0.89488      0.31630  1.0000
  Ge          0.23794      0.34027      0.95031  1.0000
  Si          0.67726      0.90671      0.28382  1.0000
  Ge          0.09466      0.74636      0.61659  1.0000
  Si          0.76953      0.66395      0.45065  1.0000
  Ge          0.34796      0.09016      0.78309  1.0000
  Ge          0.91913      0.24599      0.11594  1.0000
  Ge          0.35149      0.23822      0.37819  1.0000
  Si          0.90022      0.66335      0.04492  1.0000
  Ge          0.77200      0.09866      0.71136  1.0000
  Ge          0.67057      0.76146      0.87810  1.0000
  Si          0.10659      0.33177      0.54437  1.0000
  Ge          0.25235      0.90836      0.21290  1.0000
  Si          0.96385      0.11406      0.96368  1.0000
  Si          0.89575      0.84889      0.29664  1.0000
  Si          0.15476      0.02402      0.62939  1.0000
  Si          0.04202      0.88539      0.46261  1.0000
  Si          0.12846      0.14551      0.79702  1.0000
  Si          0.85906      0.96787      0.13011  1.0000
  Si          0.12687      0.96344      0.36304  1.0000
  Si          0.84316      0.88222      0.03060  1.0000
  Si          0.04610      0.14380      0.69690  1.0000
  Si          0.89395      0.03296      0.86304  1.0000
  Si          0.15997      0.11176      0.52997  1.0000
  Si          0.97408      0.84752      0.19647  1.0000
  O2          0.92156      0.99353      0.99553  1.0000
  O2          0.01231      0.92794      0.32915  1.0000
  O2          0.08685      0.07071      0.66340  1.0000
  O2          0.07857      0.00062      0.49566  1.0000
  O2          0.01244      0.08260      0.83093  1.0000
  O2          0.93106      0.92024      0.16253  1.0000
  O1          0.35824      0.57123      0.33395  1.0000
  O1          0.43860      0.76118      0.66550  1.0000
  O1          0.21633      0.66183      0.99848  1.0000
  O1          0.67235      0.41768      0.84018  1.0000
  O1          0.58325      0.23468      0.17179  1.0000
  O1          0.78741      0.34422      0.50398  1.0000
  O1          0.56366      0.34011      0.00607  1.0000
  O1          0.77160      0.42592      0.67175  1.0000
  O1          0.68410      0.22532      0.33885  1.0000
  O1          0.44508      0.65977      0.50164  1.0000
  O1          0.24598      0.57002      0.16639  1.0000
  O1          0.34945      0.76474      0.83421  1.0000
  O3          0.10856      0.20974      0.97318  1.0000
  O2          0.79687      0.89807      0.30310  1.0000
  O3          0.09667      0.87830      0.63822  1.0000
  O2          0.89436      0.78549      0.46967  1.0000
  O3          0.21471      0.08488      0.80602  1.0000
  O3          0.91829      0.11385      0.13794  1.0000
  O3          0.22545      0.10703      0.35499  1.0000
  O2          0.88660      0.77907      0.02499  1.0000
  O3          0.89944      0.08966      0.69145  1.0000
  O3          0.81137      0.88626      0.85848  1.0000
  O2          0.11585      0.21500      0.52436  1.0000
  O3          0.12002      0.90381      0.18972  1.0000
  O2          0.94553      0.87085      0.24651  1.0000
  O2          0.12825      0.05187      0.57913  1.0000
  O2          0.94413      0.06896      0.91305  1.0000
  O2          0.07551      0.11935      0.74706  1.0000
  O2          0.87743      0.94028      0.07945  1.0000
  O2          0.07052      0.93978      0.41274  1.0000
  O3          0.88691      0.18396      0.97296  1.0000
  O3          0.83029      0.70501      0.30942  1.0000
  O3          0.30184      0.09489      0.63760  1.0000
  O3          0.11813      0.81549      0.47338  1.0000
  O3          0.20791      0.29237      0.80467  1.0000
  O3          0.71384      0.89771      0.14143  1.0000
  O3          0.19838      0.88644      0.35595  1.0000
  O3          0.69675      0.81565      0.02197  1.0000
  O3          0.11745      0.29020      0.68646  1.0000
  O2          0.80844      0.09588      0.85172  1.0000
  O3          0.30644      0.18078      0.52107  1.0000
  O3          0.90361      0.70131      0.18708  1.0000
  O1          0.36444      0.65137      0.24690  1.0000
  O1          0.35459      0.69583      0.57858  1.0000
  O1          0.29688      0.66304      0.91247  1.0000
  O1          0.67301      0.36454      0.75082  1.0000
  O1          0.65793      0.29673      0.08293  1.0000
  O1          0.71757      0.35137      0.41658  1.0000
  O1          0.36602      0.32323      0.96072  1.0000
  O3          0.69646      0.04171      0.29445  1.0000
  O1          0.95282      0.62329      0.62799  1.0000
  O3          0.65111      0.68148      0.45984  1.0000
  O1          0.33662      0.94943      0.79134  1.0000
  O1          0.06486      0.36913      0.12531  1.0000
  O1          0.34606      0.36112      0.35407  1.0000
  O3          0.01330      0.66176      0.02047  1.0000
  O1          0.64652      0.97720      0.68612  1.0000
  O1          0.66619      0.63260      0.85503  1.0000
  O3          0.99001      0.33411      0.52239  1.0000
  O1          0.37464      0.03651      0.18946  1.0000
  O1          0.77417      0.31782      0.00208  1.0000
  O1          0.70358      0.46051      0.33708  1.0000
  O1          0.54451      0.23125      0.66771  1.0000
  O1          0.22945      0.67781      0.49981  1.0000
  O1          0.31724      0.53651      0.83306  1.0000
  O1          0.47270      0.78434      0.16876  1.0000
  O1          0.29805      0.75343      0.31507  1.0000
  O1          0.46429      0.72541      0.98159  1.0000
  O1          0.25632      0.52083      0.64641  1.0000
  O3          0.73163      0.23886      0.81525  1.0000
  O1          0.54570      0.28502      0.48371  1.0000
  O1          0.76348      0.47286      0.14834  1.0000
  O3          0.76958      0.53794      0.03535  1.0000
  O1          0.48318      0.23150      0.36455  1.0000
  O1          0.78642      0.23678      0.69471  1.0000
  O3          0.23594      0.45672      0.53231  1.0000
  O1          0.54844      0.77698      0.85943  1.0000
  O1          0.24276      0.76961      0.19860  1.0000
  O3          0.55190      0.80867      0.30873  1.0000
  O1          0.26412      0.47207      0.97613  1.0000
  O1          0.20598      0.72475      0.64372  1.0000
  O1          0.47604      0.20242      0.81043  1.0000
  O3          0.74093      0.53876      0.47661  1.0000
  O1          0.81926      0.27594      0.14519  1.0000
  O1          0.21325      0.33742      0.89439  1.0000
  O3          0.67401      0.88209      0.23162  1.0000
  O1          0.12767      0.78042      0.56138  1.0000
  O3          0.79509      0.66067      0.39878  1.0000
  O1          0.34334      0.12141      0.72780  1.0000
  O1          0.88396      0.21459      0.06104  1.0000
  O1          0.32639      0.22949      0.43431  1.0000
  O3          0.92855      0.68576      0.09725  1.0000
  O3          0.76841      0.07697      0.76849  1.0000
  O1          0.68409      0.76496      0.93491  1.0000
  O3          0.08613      0.30978      0.59728  1.0000
  O1          0.24685      0.92528      0.26909  1.0000
  O1          0.54996      0.55999      0.99595  1.0000
  O1          0.45670      0.00395      0.32941  1.0000
  O1          0.00540      0.43286      0.66012  1.0000
  O1          0.44635      0.43938      0.49355  1.0000
  O3          0.57417      0.00532      0.82413  1.0000
  O1          0.01976      0.56634      0.15794  1.0000
  O1          0.58519      0.60580      0.33950  1.0000
  O1          0.03451      0.43017      0.00316  1.0000
  O1          0.40753      0.96437      0.67662  1.0000
  O1          0.43939      0.39497      0.84676  1.0000
  O1          0.96958      0.56795      0.50630  1.0000
  O1          0.62208      0.04536      0.17529  1.0000
  O1          0.58115      0.16658      0.25526  1.0000
  O1          0.84289      0.39242      0.58683  1.0000
  O1          0.60353      0.45528      0.92279  1.0000
  O1          0.46459      0.84652      0.75079  1.0000
  O1          0.17104      0.60062      0.08158  1.0000
  O1          0.41715      0.56774      0.41775  1.0000
  F           0.46784      0.93042      0.23901  1.0000
  F           0.07975      0.53320      0.57173  1.0000
  F           0.44701      0.57427      0.90494  1.0000
  F           0.57856      0.12969      0.73711  1.0000
  F           0.93365      0.46225      0.07112  1.0000
  F           0.54170      0.45333      0.40492  1.0000
