data_cif

_audit_creation_method             'generated by GULP'

_symmetry_space_group_name_H-M     'P 1'
_symmetry_Int_Tables_number        1
_symmetry_cell_setting             triclinic

_cell_length_a                       12.3245
_cell_length_b                       12.3388
_cell_length_c                       30.1175
_cell_angle_alpha                   89.7116
_cell_angle_beta                    90.4993
_cell_angle_gamma                  120.2522

loop_
_atom_site_label
_atom_site_fract_x
_atom_site_fract_y
_atom_site_fract_z
_atom_site_occupancy
  Ge          0.69960      0.37570      0.03389  1.0000
  Ge          0.61311      0.30465      0.36609  1.0000
  Ge          0.68445      0.30263      0.69817  1.0000
  Ge          0.31188      0.62596      0.54549  1.0000
  Ge          0.36611      0.67719      0.87813  1.0000
  Ge          0.30021      0.67359      0.21281  1.0000
  Ge          0.35408      0.66403      0.31226  1.0000
  Ge          0.32016      0.62397      0.97822  1.0000
  Ge          0.31102      0.68080      0.64485  1.0000
  Ge          0.63439      0.31389      0.79723  1.0000
  Ge          0.67951      0.35364      0.46507  1.0000
  Ge          0.65107      0.29169      0.13224  1.0000
  Ge          0.53385      0.42421      0.96448  1.0000
  Ge          0.55524      0.08695      0.29757  1.0000
  Ge          0.89940      0.46580      0.62817  1.0000
  Ge          0.47614      0.56101      0.48662  1.0000
  Ge          0.42642      0.90777      0.81936  1.0000
  Ge          0.07488      0.50502      0.15020  1.0000
  Ge          0.40921      0.50340      0.38070  1.0000
  Ge          0.10331      0.57606      0.04487  1.0000
  Ge          0.47622      0.89630      0.71470  1.0000
  Ge          0.57886      0.48453      0.85808  1.0000
  Ge          0.91203      0.41541      0.52352  1.0000
  Ge          0.48187      0.06091      0.19262  1.0000
  Ge          0.28184      0.40900      0.84951  1.0000
  Ge          0.56956      0.85610      0.18305  1.0000
  Ge          0.12502      0.70701      0.51805  1.0000
  Ge          0.69814      0.59206      0.35829  1.0000
  Ge          0.39185      0.10079      0.69187  1.0000
  Ge          0.89207      0.28740      0.02016  1.0000
  Ge          0.40649      0.26687      0.49127  1.0000
  Ge          0.85424      0.57319      0.15560  1.0000
  Ge          0.71702      0.12559      0.82320  1.0000
  Si          0.60337      0.70645      0.98384  1.0000
  Ge          0.10912      0.38574      0.64962  1.0000
  Ge          0.26695      0.87045      0.31757  1.0000
  Ge          0.24280      0.33905      0.95315  1.0000
  Ge          0.63885      0.88021      0.28851  1.0000
  Si          0.10326      0.75179      0.62077  1.0000
  Ge          0.76110      0.63826      0.46281  1.0000
  Ge          0.34879      0.11543      0.79498  1.0000
  Ge          0.86873      0.21881      0.12374  1.0000
  Si          0.33081      0.22036      0.38964  1.0000
  Ge          0.89624      0.65756      0.05200  1.0000
  Si          0.76144      0.10028      0.72103  1.0000
  Ge          0.65268      0.76789      0.88102  1.0000
  Ge          0.12223      0.33954      0.54620  1.0000
  Si          0.20017      0.85717      0.21523  1.0000
  Si          0.97073      0.11639      0.97003  1.0000
  Si          0.86975      0.84097      0.30511  1.0000
  Si          0.14064      0.01822      0.63783  1.0000
  Si          0.03612      0.87174      0.47185  1.0000
  Si          0.11685      0.15523      0.80339  1.0000
  Si          0.82329      0.94337      0.13709  1.0000
  Si          0.10347      0.95228      0.37137  1.0000
  Si          0.84842      0.88102      0.03625  1.0000
  Si          0.02748      0.13585      0.70358  1.0000
  Si          0.88720      0.04327      0.87002  1.0000
  Si          0.15503      0.10281      0.53762  1.0000
  Si          0.93188      0.82052      0.20421  1.0000
  O2          0.92068      0.00277      0.00545  1.0000
  O2          0.99166      0.92357      0.33632  1.0000
  O2          0.05462      0.04826      0.67048  1.0000
  O2          0.07458      0.98945      0.50366  1.0000
  O2          0.00188      0.08027      0.83696  1.0000
  O2          0.90103      0.90311      0.17030  1.0000
  O1          0.31943      0.54895      0.35099  1.0000
  O1          0.42278      0.76055      0.68485  1.0000
  O1          0.24629      0.65851      0.01939  1.0000
  O1          0.66931      0.45219      0.82552  1.0000
  O1          0.51519      0.18776      0.16056  1.0000
  O1          0.78610      0.31979      0.49202  1.0000
  O1          0.57732      0.34013      0.99588  1.0000
  O1          0.76556      0.41450      0.65790  1.0000
  O1          0.64026      0.22540      0.32467  1.0000
  O1          0.45077      0.65835      0.51736  1.0000
  O1          0.19411      0.53490      0.18451  1.0000
  O1          0.33167      0.78404      0.85077  1.0000
  O3          0.11854      0.20283      0.97692  1.0000
  O3          0.77738      0.89538      0.31077  1.0000
  O2          0.09191      0.86896      0.64048  1.0000
  O3          0.89525      0.77093      0.48330  1.0000
  O3          0.21465      0.11140      0.81584  1.0000
  O3          0.86297      0.08547      0.14747  1.0000
  O2          0.20614      0.10062      0.36815  1.0000
  O3          0.91692      0.80147      0.03333  1.0000
  O2          0.87852      0.08923      0.70106  1.0000
  O3          0.78626      0.90022      0.86109  1.0000
  O3          0.11661      0.20471      0.52548  1.0000
  O2          0.07678      0.85780      0.19597  1.0000
  O2          0.91464      0.85630      0.25399  1.0000
  O2          0.11976      0.05386      0.58815  1.0000
  O2          0.93762      0.05887      0.92069  1.0000
  O2          0.06532      0.11652      0.75291  1.0000
  O2          0.85548      0.92825      0.08671  1.0000
  O2          0.04615      0.91577      0.42034  1.0000
  O3          0.90522      0.19795      0.97829  1.0000
  O3          0.79544      0.69512      0.31709  1.0000
  O3          0.28526      0.09319      0.65088  1.0000
  O3          0.12485      0.81320      0.47943  1.0000
  O3          0.17984      0.30353      0.80907  1.0000
  O3          0.67465      0.85686      0.14453  1.0000
  O3          0.16817      0.87330      0.35812  1.0000
  O2          0.70226      0.79303      0.02270  1.0000
  O3          0.10349      0.27998      0.68998  1.0000
  O3          0.82541      0.12871      0.86169  1.0000
  O3          0.30231      0.15957      0.53007  1.0000
  O3          0.84646      0.67362      0.19556  1.0000
  O1          0.28200      0.59562      0.26350  1.0000
  O1          0.38501      0.67846      0.59760  1.0000
  O1          0.29113      0.67098      0.92830  1.0000
  O1          0.68331      0.38128      0.74439  1.0000
  O1          0.60532      0.28837      0.07854  1.0000
  O1          0.66710      0.27741      0.41473  1.0000
  O1          0.37261      0.32605      0.95832  1.0000
  O1          0.62721      0.00168      0.30990  1.0000
  O3          0.99379      0.62427      0.64191  1.0000
  O1          0.63908      0.62909      0.49098  1.0000
  O1          0.33302      0.97418      0.80777  1.0000
  O1          0.00766      0.34482      0.13852  1.0000
  O3          0.31479      0.34107      0.38482  1.0000
  O1          0.02318      0.65319      0.03158  1.0000
  O3          0.63366      0.98951      0.69986  1.0000
  O1          0.64790      0.64675      0.85324  1.0000
  O1          0.97983      0.32314      0.53338  1.0000
  O3          0.32050      0.98920      0.20204  1.0000
  O1          0.77133      0.30832      0.00411  1.0000
  O1          0.70704      0.45936      0.35043  1.0000
  O1          0.53769      0.21310      0.67382  1.0000
  O1          0.27252      0.72702      0.51789  1.0000
  O1          0.28659      0.54837      0.84189  1.0000
  O1          0.43698      0.71211      0.18289  1.0000
  O1          0.29445      0.75381      0.33369  1.0000
  O3          0.48112      0.71933      0.98978  1.0000
  O1          0.21976      0.53251      0.66754  1.0000
  O1          0.73621      0.27254      0.82270  1.0000
  O1          0.54745      0.27514      0.49894  1.0000
  O1          0.70772      0.44079      0.15406  1.0000
  O1          0.76117      0.53873      0.02983  1.0000
  O3          0.45075      0.24287      0.36163  1.0000
  O3          0.77597      0.23148      0.70554  1.0000
  O1          0.24584      0.46955      0.52386  1.0000
  O1          0.52838      0.78645      0.86825  1.0000
  O3          0.20614      0.74120      0.19482  1.0000
  O1          0.51710      0.74329      0.30861  1.0000
  O1          0.25974      0.46447      0.98331  1.0000
  O3          0.23535      0.76749      0.63580  1.0000
  O1          0.47857      0.24068      0.81727  1.0000
  O1          0.78438      0.51560      0.47390  1.0000
  O1          0.74290      0.22534      0.14484  1.0000
  O1          0.20403      0.33993      0.89865  1.0000
  O1          0.65473      0.88897      0.23212  1.0000
  O3          0.08808      0.75316      0.56772  1.0000
  O1          0.76048      0.67052      0.40655  1.0000
  O1          0.34102      0.13947      0.73826  1.0000
  O1          0.85640      0.19652      0.06749  1.0000
  O3          0.33941      0.19080      0.44078  1.0000
  O1          0.89389      0.66548      0.10914  1.0000
  O3          0.76362      0.08655      0.77395  1.0000
  O3          0.67629      0.76354      0.93824  1.0000
  O1          0.14896      0.33652      0.60286  1.0000
  O3          0.18249      0.83954      0.26858  1.0000
  O3          0.56064      0.56199      0.99081  1.0000
  O1          0.40324      0.01127      0.31672  1.0000
  O1          0.96808      0.37942      0.64355  1.0000
  O1          0.41002      0.40410      0.50135  1.0000
  O1          0.56883      0.02236      0.84137  1.0000
  O1          0.95650      0.52570      0.17193  1.0000
  O1          0.54322      0.54767      0.35032  1.0000
  O1          0.03264      0.42597      0.02370  1.0000
  O1          0.38733      0.96055      0.69722  1.0000
  O1          0.42247      0.41570      0.84199  1.0000
  O1          0.02193      0.55757      0.50036  1.0000
  O1          0.52596      0.96418      0.16761  1.0000
  O1          0.56304      0.11610      0.24190  1.0000
  O1          0.86383      0.44917      0.57304  1.0000
  O1          0.59870      0.45426      0.91287  1.0000
  O1          0.46089      0.86054      0.76938  1.0000
  O1          0.12780      0.58633      0.10094  1.0000
  O1          0.44090      0.57242      0.43113  1.0000
  F           0.40197      0.83046      0.24658  1.0000
  F           0.15175      0.55752      0.57831  1.0000
  F           0.42727      0.57566      0.90930  1.0000
  F           0.56612      0.14716      0.76111  1.0000
  F           0.84541      0.42536      0.08037  1.0000
  F           0.57640      0.42011      0.43072  1.0000
