data_cif

_audit_creation_method             'generated by GULP'

_symmetry_space_group_name_H-M     'P 1'
_symmetry_Int_Tables_number        1
_symmetry_cell_setting             triclinic

_cell_length_a                       12.3298
_cell_length_b                       12.3261
_cell_length_c                       30.1812
_cell_angle_alpha                   90.0262
_cell_angle_beta                    90.0451
_cell_angle_gamma                  119.7215

loop_
_atom_site_label
_atom_site_fract_x
_atom_site_fract_y
_atom_site_fract_z
_atom_site_occupancy
  Ge          0.69960      0.37570      0.03389  1.0000
  Ge          0.65123      0.31578      0.36491  1.0000
  Ge          0.68965      0.33314      0.69930  1.0000
  Ge          0.33671      0.64604      0.53852  1.0000
  Ge          0.36968      0.69984      0.87243  1.0000
  Ge          0.33225      0.69965      0.20526  1.0000
  Ge          0.39916      0.71084      0.30853  1.0000
  Ge          0.32995      0.61951      0.97084  1.0000
  Ge          0.30038      0.68580      0.63671  1.0000
  Ge          0.62366      0.30880      0.79834  1.0000
  Ge          0.69607      0.38493      0.46547  1.0000
  Ge          0.71127      0.33142      0.13425  1.0000
  Ge          0.52268      0.41546      0.96841  1.0000
  Ge          0.59072      0.09358      0.29828  1.0000
  Ge          0.90695      0.49868      0.63174  1.0000
  Ge          0.51288      0.59509      0.47548  1.0000
  Ge          0.42035      0.92066      0.80766  1.0000
  Ge          0.10826      0.51959      0.14210  1.0000
  Ge          0.45279      0.53757      0.37091  1.0000
  Ge          0.11330      0.57420      0.03688  1.0000
  Ge          0.46540      0.90529      0.70261  1.0000
  Ge          0.57486      0.47699      0.86262  1.0000
  Ge          0.92228      0.44711      0.52681  1.0000
  Ge          0.54088      0.11143      0.19724  1.0000
  Ge          0.28764      0.41506      0.85390  1.0000
  Ge          0.61848      0.89550      0.18976  1.0000
  Ge          0.14036      0.73594      0.52016  1.0000
  Ge          0.73924      0.60697      0.35529  1.0000
  Ge          0.39772      0.12998      0.69022  1.0000
  Si          0.89784      0.29165      0.02433  1.0000
  Ge          0.42458      0.30086      0.49099  1.0000
  Ge          0.89884      0.60249      0.15765  1.0000
  Si          0.70292      0.12012      0.82352  1.0000
  Ge          0.60553      0.70532      0.99045  1.0000
  Ge          0.10781      0.40956      0.65266  1.0000
  Ge          0.31539      0.91189      0.32185  1.0000
  Ge          0.23613      0.33553      0.95763  1.0000
  Si          0.68414      0.90842      0.29184  1.0000
  Ge          0.11456      0.78436      0.62375  1.0000
  Ge          0.79698      0.67289      0.45978  1.0000
  Ge          0.33853      0.12834      0.79293  1.0000
  Ge          0.90354      0.23686      0.12669  1.0000
  Ge          0.36594      0.25121      0.38674  1.0000
  Ge          0.91106      0.66169      0.05382  1.0000
  Ge          0.75289      0.11335      0.72047  1.0000
  Ge          0.65702      0.76472      0.88624  1.0000
  Si          0.12187      0.36442      0.55100  1.0000
  Si          0.26192      0.91279      0.21922  1.0000
  Si          0.96225      0.11484      0.97219  1.0000
  Si          0.90546      0.85637      0.30505  1.0000
  Si          0.15198      0.05428      0.63810  1.0000
  Si          0.06687      0.91064      0.47210  1.0000
  Si          0.10904      0.16918      0.80586  1.0000
  Si          0.86463      0.96354      0.13936  1.0000
  Si          0.13614      0.98126      0.37095  1.0000
  Si          0.85612      0.88141      0.03887  1.0000
  Si          0.02713      0.16024      0.70529  1.0000
  Si          0.87338      0.04185      0.87120  1.0000
  Si          0.16973      0.14133      0.53853  1.0000
  Si          0.98739      0.85543      0.20616  1.0000
  O2          0.91345      0.99345      0.00308  1.0000
  O2          0.01822      0.94096      0.33843  1.0000
  O2          0.07057      0.08921      0.67090  1.0000
  O2          0.09899      0.03050      0.50273  1.0000
  O2          0.99175      0.09606      0.83870  1.0000
  O2          0.94951      0.92801      0.17015  1.0000
  O1          0.36528      0.58186      0.34003  1.0000
  O1          0.42629      0.77615      0.67362  1.0000
  O1          0.23642      0.65760      0.00492  1.0000
  O1          0.66589      0.44304      0.83144  1.0000
  O1          0.57249      0.23080      0.16336  1.0000
  O1          0.80021      0.35091      0.49602  1.0000
  O1          0.58244      0.33427      0.99604  1.0000
  O1          0.76894      0.44611      0.66056  1.0000
  O1          0.68299      0.23067      0.32987  1.0000
  O1          0.46180      0.67937      0.50556  1.0000
  O1          0.24215      0.57203      0.17373  1.0000
  O1          0.33434      0.79340      0.84089  1.0000
  O3          0.11003      0.19431      0.97603  1.0000
  O2          0.80187      0.89893      0.31144  1.0000
  O3          0.09923      0.90831      0.64450  1.0000
  O3          0.92493      0.80718      0.48106  1.0000
  O3          0.20359      0.11858      0.81555  1.0000
  O3          0.91109      0.10821      0.14672  1.0000
  O3          0.23307      0.12628      0.36309  1.0000
  O3          0.91863      0.79636      0.03092  1.0000
  O3          0.87933      0.10042      0.70092  1.0000
  O3          0.78962      0.89536      0.86418  1.0000
  O2          0.12444      0.24272      0.53023  1.0000
  O2          0.13496      0.90540      0.19934  1.0000
  O2          0.96025      0.88735      0.25527  1.0000
  O2          0.13080      0.08291      0.58745  1.0000
  O2          0.92150      0.07158      0.92171  1.0000
  O2          0.05920      0.13928      0.75540  1.0000
  O2          0.88547      0.93994      0.08817  1.0000
  O2          0.08557      0.95686      0.42117  1.0000
  O2          0.90282      0.20106      0.98607  1.0000
  O3          0.84197      0.71095      0.31511  1.0000
  O3          0.29773      0.12974      0.64861  1.0000
  O3          0.15131      0.84791      0.48152  1.0000
  O3          0.18102      0.31689      0.81362  1.0000
  O3          0.71899      0.88552      0.15110  1.0000
  O3          0.20527      0.90372      0.36029  1.0000
  O3          0.70870      0.79727      0.03229  1.0000
  O3          0.09618      0.30550      0.69404  1.0000
  O2          0.79177      0.10956      0.86129  1.0000
  O3          0.31704      0.20627      0.53144  1.0000
  O3          0.90913      0.70895      0.19831  1.0000
  O1          0.31967      0.65513      0.25970  1.0000
  O1          0.38912      0.68444      0.59188  1.0000
  O1          0.32996      0.70874      0.92590  1.0000
  O1          0.68159      0.39492      0.74910  1.0000
  O1          0.63690      0.33795      0.08584  1.0000
  O1          0.68741      0.29891      0.41875  1.0000
  O1          0.36556      0.33960      0.98076  1.0000
  O3          0.68569      0.02730      0.31283  1.0000
  O1          0.99154      0.65357      0.64676  1.0000
  O1          0.67046      0.66808      0.48580  1.0000
  O1          0.32488      0.98532      0.80344  1.0000
  O1          0.02591      0.36177      0.15244  1.0000
  O1          0.35142      0.38170      0.38053  1.0000
  O1          0.05234      0.67295      0.04655  1.0000
  O1          0.62456      0.00358      0.69353  1.0000
  O1          0.66871      0.63713      0.87409  1.0000
  O3          0.99140      0.35493      0.54066  1.0000
  O3          0.37787      0.04453      0.20723  1.0000
  O3          0.76165      0.27715      0.02291  1.0000
  O1          0.75037      0.47547      0.35273  1.0000
  O1          0.54309      0.24492      0.67525  1.0000
  O1          0.28395      0.74615      0.52124  1.0000
  O1          0.27506      0.54696      0.85458  1.0000
  O1          0.48490      0.75282      0.18994  1.0000
  O1          0.33687      0.78849      0.33636  1.0000
  O1          0.46413      0.68828      0.00420  1.0000
  O1          0.23017      0.54933      0.66876  1.0000
  O3          0.71998      0.25727      0.82462  1.0000
  O1          0.56570      0.31268      0.50131  1.0000
  O1          0.76925      0.46328      0.16921  1.0000
  O1          0.79942      0.53344      0.02593  1.0000
  O1          0.49568      0.27762      0.35855  1.0000
  O1          0.77464      0.25674      0.70711  1.0000
  O3          0.23320      0.48778      0.52871  1.0000
  O1          0.52748      0.75786      0.86236  1.0000
  O3          0.28112      0.80573      0.19587  1.0000
  O3          0.56131      0.77980      0.30614  1.0000
  O1          0.22200      0.45755      0.97725  1.0000
  O1          0.25224      0.79901      0.64152  1.0000
  O1          0.46598      0.24914      0.81742  1.0000
  O1          0.80959      0.54671      0.47490  1.0000
  O1          0.76538      0.22267      0.14267  1.0000
  O1          0.23333      0.32477      0.90077  1.0000
  O3          0.70144      0.92299      0.23865  1.0000
  O1          0.10310      0.78962      0.56702  1.0000
  O1          0.79675      0.69214      0.40323  1.0000
  O1          0.33696      0.15863      0.73714  1.0000
  O3          0.92562      0.24095      0.06964  1.0000
  O1          0.36485      0.21916      0.44199  1.0000
  O1          0.87908      0.66459      0.10894  1.0000
  O3          0.74652      0.08789      0.77719  1.0000
  O1          0.66333      0.78995      0.94237  1.0000
  O3          0.14272      0.35884      0.60363  1.0000
  O3          0.23718      0.88910      0.27162  1.0000
  O1          0.60324      0.56469      0.99008  1.0000
  O1          0.45128      0.04881      0.32847  1.0000
  O1          0.96872      0.40849      0.65072  1.0000
  O1          0.43073      0.44318      0.49395  1.0000
  O3          0.55966      0.02007      0.83516  1.0000
  O1          0.03687      0.59973      0.16155  1.0000
  O1          0.58718      0.56643      0.34384  1.0000
  O3          0.99573      0.43483      0.01399  1.0000
  O1          0.38827      0.98778      0.69229  1.0000
  O1          0.43745      0.45816      0.83936  1.0000
  O1          0.03730      0.58658      0.50425  1.0000
  O1          0.57564      0.00155      0.17486  1.0000
  O1          0.61517      0.16569      0.24731  1.0000
  O1          0.87599      0.48382      0.57643  1.0000
  O1          0.54046      0.40120      0.91321  1.0000
  O1          0.44533      0.86880      0.75874  1.0000
  O1          0.15530      0.54427      0.08813  1.0000
  O1          0.48983      0.61548      0.42068  1.0000
  F           0.48192      0.92846      0.26559  1.0000
  F           0.15166      0.59796      0.59587  1.0000
  F           0.42358      0.56359      0.93084  1.0000
  F           0.55514      0.15928      0.76139  1.0000
  F           0.87249      0.43091      0.10059  1.0000
  F           0.60403      0.45186      0.43220  1.0000
