data_cif

_audit_creation_method             'generated by GULP'

_symmetry_space_group_name_H-M     'P 1'
_symmetry_Int_Tables_number        1
_symmetry_cell_setting             triclinic

_cell_length_a                       12.3372
_cell_length_b                       12.3247
_cell_length_c                       30.0903
_cell_angle_alpha                   89.7855
_cell_angle_beta                    89.9754
_cell_angle_gamma                  119.8143

loop_
_atom_site_label
_atom_site_fract_x
_atom_site_fract_y
_atom_site_fract_z
_atom_site_occupancy
  Ge          0.69960      0.37570      0.03389  1.0000
  Ge          0.66527      0.34103      0.36816  1.0000
  Ge          0.70044      0.35048      0.69958  1.0000
  Ge          0.35207      0.66702      0.53773  1.0000
  Ge          0.37220      0.70995      0.87111  1.0000
  Ge          0.33571      0.69201      0.20563  1.0000
  Ge          0.40906      0.72313      0.30473  1.0000
  Ge          0.33468      0.62957      0.97006  1.0000
  Ge          0.31809      0.70680      0.63675  1.0000
  Ge          0.63152      0.32329      0.79875  1.0000
  Ge          0.71212      0.40557      0.46764  1.0000
  Ge          0.71570      0.33271      0.13440  1.0000
  Ge          0.52732      0.42414      0.96811  1.0000
  Ge          0.61251      0.11933      0.30198  1.0000
  Ge          0.92238      0.51847      0.63406  1.0000
  Ge          0.52543      0.61489      0.47324  1.0000
  Ge          0.42331      0.93479      0.80678  1.0000
  Ge          0.11145      0.51927      0.14118  1.0000
  Ge          0.46787      0.55673      0.36748  1.0000
  Ge          0.11486      0.57449      0.03560  1.0000
  Ge          0.47871      0.92587      0.70163  1.0000
  Ge          0.57618      0.49031      0.86245  1.0000
  Ge          0.93815      0.46742      0.52850  1.0000
  Ge          0.54754      0.10660      0.19625  1.0000
  Ge          0.28822      0.42431      0.85428  1.0000
  Ge          0.62189      0.88925      0.18899  1.0000
  Ge          0.15555      0.75754      0.52090  1.0000
  Ge          0.75764      0.63014      0.35646  1.0000
  Ge          0.41356      0.14916      0.69044  1.0000
  Si          0.89787      0.29155      0.02344  1.0000
  Ge          0.43870      0.32222      0.48955  1.0000
  Ge          0.90298      0.60430      0.15831  1.0000
  Ge          0.71769      0.13812      0.82373  1.0000
  Ge          0.60940      0.71459      0.99008  1.0000
  Ge          0.12601      0.43134      0.65461  1.0000
  Ge          0.32342      0.91437      0.32215  1.0000
  Ge          0.24068      0.34542      0.95860  1.0000
  Ge          0.69294      0.91257      0.29350  1.0000
  Ge          0.13057      0.80396      0.62532  1.0000
  Ge          0.81061      0.69291      0.46129  1.0000
  Si          0.34772      0.14053      0.79310  1.0000
  Ge          0.90503      0.23547      0.12644  1.0000
  Si          0.38400      0.27345      0.38695  1.0000
  Ge          0.91252      0.66175      0.05394  1.0000
  Ge          0.76639      0.13112      0.71954  1.0000
  Ge          0.66000      0.77643      0.88582  1.0000
  Si          0.13687      0.38427      0.55216  1.0000
  Si          0.26688      0.90698      0.21947  1.0000
  Si          0.96983      0.11938      0.97272  1.0000
  Si          0.92960      0.87918      0.30618  1.0000
  Si          0.16764      0.07430      0.63871  1.0000
  Si          0.08008      0.93080      0.47226  1.0000
  Si          0.11704      0.17887      0.80456  1.0000
  Si          0.86989      0.96313      0.13915  1.0000
  Si          0.16015      0.00448      0.37196  1.0000
  Si          0.86121      0.88387      0.03867  1.0000
  Si          0.03862      0.17813      0.70432  1.0000
  Si          0.88597      0.05114      0.87165  1.0000
  Si          0.18443      0.16066      0.53831  1.0000
  Si          0.99591      0.85888      0.20619  1.0000
  O2          0.92187      0.99696      0.00315  1.0000
  O2          0.05111      0.96872      0.33567  1.0000
  O2          0.08315      0.10960      0.66935  1.0000
  O2          0.11151      0.05146      0.50220  1.0000
  O2          0.00279      0.09524      0.83787  1.0000
  O2          0.95764      0.92979      0.16941  1.0000
  O1          0.37376      0.58992      0.33799  1.0000
  O1          0.44655      0.79987      0.67167  1.0000
  O1          0.23747      0.66374      0.00372  1.0000
  O1          0.66497      0.45805      0.82958  1.0000
  O1          0.57796      0.23038      0.16497  1.0000
  O1          0.81490      0.37079      0.49797  1.0000
  O1          0.58403      0.33978      0.99576  1.0000
  O1          0.78303      0.46657      0.66182  1.0000
  O1          0.69620      0.25838      0.32995  1.0000
  O1          0.47335      0.69931      0.50284  1.0000
  O1          0.24586      0.56950      0.17169  1.0000
  O1          0.33719      0.80296      0.83858  1.0000
  O3          0.11642      0.20442      0.97849  1.0000
  O3          0.82997      0.92329      0.31463  1.0000
  O3          0.11924      0.92968      0.64652  1.0000
  O3          0.93849      0.82786      0.48226  1.0000
  O2          0.22251      0.13848      0.81160  1.0000
  O3          0.91300      0.10717      0.14673  1.0000
  O2          0.26049      0.15203      0.36640  1.0000
  O3          0.91986      0.79583      0.03040  1.0000
  O3          0.89332      0.12402      0.69641  1.0000
  O3          0.79223      0.90614      0.86303  1.0000
  O2          0.13955      0.26275      0.53159  1.0000
  O2          0.14280      0.90452      0.19899  1.0000
  O2          0.97241      0.89851      0.25454  1.0000
  O2          0.14942      0.10010      0.58723  1.0000
  O2          0.93759      0.07476      0.92188  1.0000
  O2          0.06459      0.14923      0.75444  1.0000
  O2          0.89336      0.94211      0.08790  1.0000
  O2          0.09800      0.97448      0.42068  1.0000
  O2          0.90335      0.20048      0.98532  1.0000
  O3          0.86594      0.73330      0.31746  1.0000
  O3          0.31259      0.15331      0.65067  1.0000
  O3          0.16496      0.86885      0.48204  1.0000
  O3          0.18077      0.32470      0.81437  1.0000
  O3          0.72402      0.88170      0.15002  1.0000
  O3          0.22713      0.92493      0.36249  1.0000
  O3          0.71335      0.80409      0.03201  1.0000
  O3          0.11361      0.32558      0.69564  1.0000
  O3          0.81400      0.12735      0.86401  1.0000
  O3          0.33099      0.22469      0.52956  1.0000
  O3          0.91578      0.71154      0.19922  1.0000
  O1          0.32189      0.63802      0.25882  1.0000
  O1          0.40534      0.70631      0.59091  1.0000
  O1          0.33564      0.72067      0.92505  1.0000
  O1          0.71983      0.40812      0.75231  1.0000
  O1          0.63729      0.33544      0.08617  1.0000
  O1          0.70579      0.31981      0.42041  1.0000
  O1          0.37060      0.35002      0.98130  1.0000
  O1          0.68886      0.03871      0.31546  1.0000
  O1          0.00478      0.67449      0.64774  1.0000
  O1          0.68234      0.68819      0.48551  1.0000
  O3          0.35401      0.02616      0.81648  1.0000
  O1          0.02705      0.36097      0.15175  1.0000
  O3          0.37366      0.39548      0.37931  1.0000
  O1          0.05282      0.67190      0.04646  1.0000
  O1          0.63778      0.98956      0.71269  1.0000
  O1          0.67257      0.64848      0.87525  1.0000
  O3          0.00635      0.37442      0.54167  1.0000
  O3          0.38668      0.03836      0.20893  1.0000
  O3          0.76195      0.27800      0.02178  1.0000
  O1          0.76680      0.49645      0.35432  1.0000
  O1          0.54381      0.29292      0.68677  1.0000
  O1          0.29860      0.76726      0.52113  1.0000
  O1          0.27453      0.55598      0.85469  1.0000
  O1          0.48918      0.74605      0.18902  1.0000
  O1          0.33709      0.78811      0.33696  1.0000
  O1          0.46796      0.69725      0.00407  1.0000
  O1          0.25169      0.57002      0.66919  1.0000
  O1          0.70392      0.26589      0.83494  1.0000
  O1          0.57816      0.33185      0.50168  1.0000
  O1          0.77284      0.46417      0.16967  1.0000
  O1          0.79920      0.53389      0.02653  1.0000
  O3          0.50599      0.28927      0.36194  1.0000
  O1          0.75327      0.24527      0.69171  1.0000
  O3          0.24761      0.50804      0.52954  1.0000
  O1          0.52951      0.76491      0.86117  1.0000
  O3          0.28194      0.79751      0.19678  1.0000
  O1          0.57135      0.77602      0.31305  1.0000
  O1          0.22568      0.46692      0.97783  1.0000
  O1          0.26691      0.81829      0.64458  1.0000
  O3          0.46643      0.27003      0.80694  1.0000
  O1          0.82406      0.56784      0.47777  1.0000
  O1          0.76709      0.22139      0.14314  1.0000
  O1          0.23495      0.33402      0.90147  1.0000
  O1          0.70947      0.92179      0.23652  1.0000
  O1          0.12126      0.81145      0.56837  1.0000
  O1          0.81366      0.71409      0.40451  1.0000
  O3          0.33146      0.12134      0.73984  1.0000
  O3          0.92397      0.23954      0.06899  1.0000
  O3          0.38344      0.24449      0.43924  1.0000
  O1          0.88156      0.66526      0.10941  1.0000
  O1          0.80045      0.16053      0.77500  1.0000
  O1          0.66483      0.80226      0.94203  1.0000
  O3          0.15590      0.37876      0.60496  1.0000
  O3          0.24252      0.88595      0.27227  1.0000
  O1          0.60842      0.57444      0.98867  1.0000
  O1          0.46295      0.05147      0.32339  1.0000
  O1          0.98858      0.43447      0.65534  1.0000
  O1          0.44448      0.46360      0.49320  1.0000
  O1          0.57459      0.00274      0.82617  1.0000
  O1          0.03951      0.59874      0.16093  1.0000
  O1          0.60634      0.58428      0.34294  1.0000
  O3          0.99640      0.43497      0.01296  1.0000
  O1          0.45667      0.04155      0.67744  1.0000
  O1          0.43940      0.47353      0.84000  1.0000
  O1          0.05208      0.60739      0.50566  1.0000
  O1          0.57569      0.99368      0.17380  1.0000
  O1          0.62592      0.15156      0.24657  1.0000
  O1          0.89225      0.50157      0.57856  1.0000
  O1          0.54201      0.40941      0.91248  1.0000
  O1          0.40331      0.88841      0.75273  1.0000
  O1          0.15619      0.54233      0.08668  1.0000
  O1          0.50477      0.63243      0.41822  1.0000
  F           0.47241      0.87482      0.26571  1.0000
  F           0.16849      0.62089      0.59767  1.0000
  F           0.42547      0.57276      0.93077  1.0000
  F           0.57667      0.17298      0.76333  1.0000
  F           0.87204      0.42902      0.10029  1.0000
  F           0.62486      0.47369      0.43237  1.0000
