data_cif

_audit_creation_method             'generated by GULP'

_symmetry_space_group_name_H-M     'P 1'
_symmetry_Int_Tables_number        1
_symmetry_cell_setting             triclinic

_cell_length_a                       12.3542
_cell_length_b                       12.3484
_cell_length_c                       30.1669
_cell_angle_alpha                   89.8907
_cell_angle_beta                    90.2930
_cell_angle_gamma                  119.9990

loop_
_atom_site_label
_atom_site_fract_x
_atom_site_fract_y
_atom_site_fract_z
_atom_site_occupancy
  Ge          0.69960      0.37570      0.03389  1.0000
  Ge          0.67284      0.34888      0.36545  1.0000
  Ge          0.71343      0.35112      0.69966  1.0000
  Ge          0.36388      0.66961      0.53954  1.0000
  Ge          0.37845      0.71485      0.87077  1.0000
  Ge          0.34405      0.69380      0.20524  1.0000
  Ge          0.42298      0.73124      0.30373  1.0000
  Ge          0.34329      0.63653      0.96957  1.0000
  Ge          0.31739      0.70071      0.63720  1.0000
  Ge          0.64505      0.32462      0.79848  1.0000
  Ge          0.71687      0.40550      0.46564  1.0000
  Ge          0.72214      0.32970      0.13342  1.0000
  Ge          0.53358      0.43046      0.96819  1.0000
  Ge          0.62534      0.12885      0.30021  1.0000
  Ge          0.93198      0.51919      0.63289  1.0000
  Ge          0.53273      0.61635      0.47528  1.0000
  Ge          0.43884      0.94265      0.80884  1.0000
  Ge          0.11963      0.51905      0.14029  1.0000
  Ge          0.47414      0.56443      0.36982  1.0000
  Ge          0.12463      0.57845      0.03485  1.0000
  Ge          0.48386      0.92309      0.70381  1.0000
  Ge          0.58616      0.49028      0.86184  1.0000
  Ge          0.93972      0.46328      0.52838  1.0000
  Ge          0.55336      0.10593      0.19497  1.0000
  Ge          0.29230      0.42561      0.85342  1.0000
  Ge          0.62955      0.89096      0.18782  1.0000
  Ge          0.16169      0.75134      0.52239  1.0000
  Si          0.75702      0.63098      0.35617  1.0000
  Ge          0.41998      0.14776      0.69192  1.0000
  Ge          0.90243      0.29111      0.02201  1.0000
  Ge          0.44691      0.32199      0.49106  1.0000
  Ge          0.91126      0.60284      0.15695  1.0000
  Ge          0.72987      0.13921      0.82417  1.0000
  Ge          0.61882      0.71883      0.98904  1.0000
  Ge          0.12991      0.42476      0.65503  1.0000
  Ge          0.33721      0.92123      0.32143  1.0000
  Ge          0.24448      0.35151      0.95695  1.0000
  Ge          0.70528      0.92206      0.29198  1.0000
  Si          0.13672      0.80147      0.62377  1.0000
  Ge          0.81605      0.69204      0.45873  1.0000
  Si          0.36199      0.14780      0.79334  1.0000
  Ge          0.91293      0.23359      0.12634  1.0000
  Ge          0.38687      0.27508      0.38679  1.0000
  Ge          0.91803      0.66092      0.05310  1.0000
  Ge          0.77417      0.12892      0.71894  1.0000
  Ge          0.66765      0.77856      0.88359  1.0000
  Ge          0.14455      0.38199      0.55162  1.0000
  Si          0.27381      0.90746      0.21927  1.0000
  Si          0.97588      0.11881      0.97143  1.0000
  Si          0.92970      0.87529      0.30600  1.0000
  Si          0.17471      0.06943      0.63778  1.0000
  Si          0.08952      0.92540      0.47174  1.0000
  Si          0.12770      0.17814      0.80363  1.0000
  Si          0.87680      0.96206      0.13918  1.0000
  Si          0.16639      0.00101      0.37122  1.0000
  Si          0.87102      0.88682      0.03820  1.0000
  Si          0.04415      0.16910      0.70372  1.0000
  Si          0.89886      0.05266      0.87048  1.0000
  Si          0.19313      0.15733      0.53792  1.0000
  Si          0.00071      0.85480      0.20626  1.0000
  O2          0.93814      0.00160      0.00388  1.0000
  O2          0.05115      0.94863      0.33675  1.0000
  O2          0.08566      0.09498      0.66992  1.0000
  O2          0.12516      0.04355      0.50315  1.0000
  O2          0.01605      0.09412      0.83760  1.0000
  O2          0.96164      0.92666      0.17031  1.0000
  O1          0.38696      0.60098      0.33789  1.0000
  O1          0.43891      0.79200      0.67540  1.0000
  O1          0.25039      0.67129      0.00500  1.0000
  O1          0.67649      0.45668      0.83080  1.0000
  O1          0.58358      0.22812      0.16320  1.0000
  O1          0.81760      0.36994      0.49641  1.0000
  O1          0.57953      0.34089      0.99772  1.0000
  O1          0.79641      0.46948      0.66259  1.0000
  O1          0.70896      0.27104      0.32676  1.0000
  O1          0.48964      0.70456      0.50674  1.0000
  O1          0.25414      0.57076      0.17108  1.0000
  O1          0.34527      0.81141      0.83974  1.0000
  O3          0.12110      0.21508      0.97912  1.0000
  O3          0.84688      0.93918      0.31160  1.0000
  O2          0.12932      0.92203      0.64165  1.0000
  O3          0.94483      0.82744      0.47863  1.0000
  O2          0.23532      0.14142      0.81199  1.0000
  O3          0.92055      0.10593      0.14761  1.0000
  O3          0.25289      0.14774      0.36359  1.0000
  O3          0.92393      0.79416      0.02992  1.0000
  O3          0.89793      0.11435      0.69711  1.0000
  O3          0.79864      0.90956      0.86134  1.0000
  O3          0.14372      0.25177      0.52781  1.0000
  O2          0.14823      0.90359      0.19945  1.0000
  O2          0.97450      0.88675      0.25522  1.0000
  O2          0.15654      0.10259      0.58767  1.0000
  O2          0.94969      0.06871      0.92090  1.0000
  O2          0.07324      0.14378      0.75393  1.0000
  O2          0.90198      0.94125      0.08816  1.0000
  O2          0.11234      0.97229      0.42091  1.0000
  O3          0.89860      0.18807      0.98132  1.0000
  O2          0.84691      0.72791      0.31807  1.0000
  O3          0.31718      0.15069      0.65217  1.0000
  O3          0.16928      0.85934      0.48303  1.0000
  O3          0.18666      0.32377      0.81308  1.0000
  O3          0.73012      0.88180      0.14889  1.0000
  O3          0.24495      0.93263      0.36255  1.0000
  O3          0.72309      0.81291      0.03032  1.0000
  O3          0.11607      0.31644      0.69528  1.0000
  O3          0.83293      0.13492      0.86317  1.0000
  O3          0.34155      0.22708      0.53191  1.0000
  O3          0.92233      0.70801      0.19809  1.0000
  O1          0.33349      0.64244      0.25838  1.0000
  O1          0.41263      0.70562      0.59350  1.0000
  O1          0.31589      0.70128      0.92215  1.0000
  O1          0.70331      0.41130      0.74933  1.0000
  O1          0.64217      0.33657      0.08650  1.0000
  O1          0.71379      0.32524      0.41726  1.0000
  O1          0.37349      0.33690      0.96599  1.0000
  O1          0.70198      0.04879      0.31376  1.0000
  O3          0.02277      0.67793      0.64571  1.0000
  O1          0.69144      0.68858      0.48456  1.0000
  O3          0.34663      0.01192      0.80204  1.0000
  O1          0.03438      0.36139      0.15153  1.0000
  O1          0.37590      0.40494      0.37938  1.0000
  O1          0.05882      0.67236      0.04602  1.0000
  O1          0.64257      0.01899      0.69314  1.0000
  O1          0.65612      0.65275      0.85757  1.0000
  O1          0.00401      0.36875      0.54073  1.0000
  O3          0.39299      0.03849      0.20778  1.0000
  O1          0.75859      0.27894      0.01960  1.0000
  O3          0.77054      0.50875      0.35375  1.0000
  O1          0.56530      0.26222      0.67617  1.0000
  O1          0.30696      0.76706      0.52308  1.0000
  O1          0.30924      0.57005      0.84451  1.0000
  O1          0.49680      0.74755      0.18826  1.0000
  O1          0.35275      0.79686      0.33616  1.0000
  O1          0.48720      0.72888      0.99604  1.0000
  O1          0.25136      0.56635      0.67067  1.0000
  O1          0.74515      0.28428      0.82664  1.0000
  O1          0.58668      0.33087      0.50130  1.0000
  O1          0.78387      0.46107      0.16843  1.0000
  O1          0.80266      0.53370      0.02549  1.0000
  O1          0.51438      0.29049      0.35888  1.0000
  O1          0.79708      0.27331      0.70547  1.0000
  O1          0.26434      0.51266      0.52780  1.0000
  O1          0.54058      0.79376      0.87088  1.0000
  O3          0.28763      0.79711      0.19691  1.0000
  O1          0.58566      0.78588      0.31200  1.0000
  O1          0.25096      0.47559      0.98415  1.0000
  O3          0.26567      0.81288      0.63903  1.0000
  O3          0.48399      0.25468      0.81723  1.0000
  O1          0.83024      0.56786      0.47448  1.0000
  O1          0.77404      0.21963      0.14190  1.0000
  O1          0.21380      0.35603      0.90146  1.0000
  O1          0.71901      0.92796      0.23503  1.0000
  O3          0.12171      0.79974      0.57046  1.0000
  O3          0.81016      0.70841      0.40153  1.0000
  O3          0.36934      0.18070      0.74094  1.0000
  O1          0.93053      0.23282      0.06973  1.0000
  O1          0.38422      0.24137      0.44203  1.0000
  O1          0.88668      0.66192      0.10844  1.0000
  O1          0.77868      0.10669      0.77500  1.0000
  O1          0.69412      0.78003      0.93971  1.0000
  O1          0.16424      0.37036      0.60752  1.0000
  O3          0.25328      0.89030      0.27204  1.0000
  O1          0.58330      0.56674      0.99808  1.0000
  O1          0.47627      0.05987      0.32183  1.0000
  O1          0.99297      0.42896      0.65197  1.0000
  O1          0.45363      0.46458      0.49457  1.0000
  O1          0.57655      0.03357      0.83742  1.0000
  O1          0.04871      0.59999      0.15888  1.0000
  O3          0.61306      0.58578      0.34665  1.0000
  O1          0.01114      0.44191      0.00953  1.0000
  O1          0.40725      0.00502      0.69238  1.0000
  O1          0.43080      0.42986      0.84738  1.0000
  O1          0.05844      0.60216      0.50644  1.0000
  O1          0.58049      0.99284      0.17248  1.0000
  O1          0.63500      0.15520      0.24464  1.0000
  O1          0.89414      0.49935      0.57807  1.0000
  O1          0.59844      0.45762      0.91695  1.0000
  O1          0.46849      0.89224      0.76025  1.0000
  O1          0.16120      0.53976      0.08574  1.0000
  O1          0.50511      0.63586      0.42103  1.0000
  F           0.48301      0.87977      0.26428  1.0000
  F           0.17498      0.60470      0.59570  1.0000
  F           0.43287      0.57870      0.92868  1.0000
  F           0.58925      0.17523      0.76248  1.0000
  F           0.87787      0.42370      0.09720  1.0000
  F           0.62126      0.46679      0.43258  1.0000
