data_cif

_audit_creation_method             'generated by GULP'

_symmetry_space_group_name_H-M     'P 1'
_symmetry_Int_Tables_number        1
_symmetry_cell_setting             triclinic

_cell_length_a                       12.3091
_cell_length_b                       12.3461
_cell_length_c                       30.2162
_cell_angle_alpha                   90.2964
_cell_angle_beta                    90.1906
_cell_angle_gamma                  119.8184

loop_
_atom_site_label
_atom_site_fract_x
_atom_site_fract_y
_atom_site_fract_z
_atom_site_occupancy
  Ge          0.69960      0.37570      0.03389  1.0000
  Ge          0.67105      0.31794      0.36368  1.0000
  Ge          0.71326      0.34864      0.70016  1.0000
  Ge          0.35591      0.65185      0.53444  1.0000
  Ge          0.38348      0.70814      0.86709  1.0000
  Ge          0.34959      0.70439      0.20049  1.0000
  Ge          0.41290      0.70806      0.30362  1.0000
  Ge          0.34396      0.63701      0.96585  1.0000
  Ge          0.32936      0.69818      0.63303  1.0000
  Ge          0.64085      0.31434      0.79830  1.0000
  Ge          0.71364      0.39353      0.46353  1.0000
  Ge          0.72722      0.33311      0.13335  1.0000
  Ge          0.53359      0.43177      0.96929  1.0000
  Ge          0.60868      0.09275      0.29833  1.0000
  Ge          0.93253      0.51024      0.63473  1.0000
  Ge          0.52695      0.59872      0.46904  1.0000
  Ge          0.43442      0.92783      0.80136  1.0000
  Ge          0.12658      0.52566      0.13562  1.0000
  Ge          0.46884      0.53642      0.36505  1.0000
  Ge          0.12567      0.57988      0.03047  1.0000
  Ge          0.48879      0.92001      0.69682  1.0000
  Ge          0.58752      0.48392      0.86412  1.0000
  Ge          0.93504      0.45008      0.52968  1.0000
  Ge          0.56016      0.11564      0.19755  1.0000
  Ge          0.29482      0.41655      0.85368  1.0000
  Ge          0.63744      0.90050      0.18775  1.0000
  Ge          0.15662      0.74457      0.52070  1.0000
  Ge          0.75580      0.60667      0.35129  1.0000
  Ge          0.42641      0.14397      0.68688  1.0000
  Ge          0.90303      0.29203      0.01943  1.0000
  Ge          0.43929      0.30754      0.48649  1.0000
  Ge          0.91796      0.60830      0.15407  1.0000
  Ge          0.72884      0.12803      0.82011  1.0000
  Ge          0.61807      0.71889      0.98813  1.0000
  Ge          0.13642      0.42553      0.65293  1.0000
  Ge          0.33150      0.90944      0.31976  1.0000
  Ge          0.24407      0.35211      0.95632  1.0000
  Si          0.69963      0.90621      0.28971  1.0000
  Ge          0.14400      0.79804      0.62364  1.0000
  Ge          0.81270      0.67921      0.45508  1.0000
  Si          0.35784      0.13256      0.78850  1.0000
  Ge          0.92102      0.24021      0.12337  1.0000
  Ge          0.38451      0.25195      0.38286  1.0000
  Ge          0.91802      0.66175      0.05061  1.0000
  Ge          0.77802      0.12821      0.71669  1.0000
  Ge          0.67051      0.77232      0.88324  1.0000
  Si          0.14040      0.37143      0.55012  1.0000
  Si          0.28014      0.91685      0.21749  1.0000
  Si          0.97630      0.11858      0.96956  1.0000
  Si          0.92203      0.85524      0.30247  1.0000
  Si          0.17829      0.06652      0.63656  1.0000
  Si          0.08173      0.91644      0.46948  1.0000
  Si          0.12719      0.17101      0.80113  1.0000
  Si          0.88366      0.96923      0.13720  1.0000
  Si          0.15436      0.98156      0.36830  1.0000
  Si          0.87078      0.88820      0.03628  1.0000
  Si          0.04997      0.17353      0.70108  1.0000
  Si          0.89969      0.04417      0.86880  1.0000
  Si          0.18769      0.14679      0.53653  1.0000
  Si          0.00590      0.86030      0.20375  1.0000
  O2          0.93780      0.00180      0.00188  1.0000
  O2          0.03427      0.93920      0.33641  1.0000
  O2          0.09438      0.10232      0.66731  1.0000
  O2          0.11346      0.03588      0.50069  1.0000
  O2          0.01551      0.08697      0.83496  1.0000
  O2          0.96810      0.93318      0.16810  1.0000
  O1          0.37954      0.57704      0.33344  1.0000
  O1          0.46090      0.79505      0.66667  1.0000
  O1          0.24876      0.67335      0.99971  1.0000
  O1          0.67316      0.44240      0.83358  1.0000
  O1          0.59228      0.23626      0.16470  1.0000
  O1          0.81251      0.35980      0.49790  1.0000
  O1          0.57565      0.34041      0.99945  1.0000
  O1          0.79989      0.46973      0.66534  1.0000
  O1          0.70259      0.22864      0.33056  1.0000
  O1          0.47508      0.68299      0.49888  1.0000
  O1          0.26292      0.58090      0.16642  1.0000
  O1          0.34802      0.79586      0.83236  1.0000
  O3          0.12101      0.21584      0.97830  1.0000
  O2          0.81640      0.89492      0.30943  1.0000
  O3          0.13282      0.92335      0.64555  1.0000
  O3          0.93700      0.81742      0.47631  1.0000
  O2          0.23051      0.12694      0.80637  1.0000
  O3          0.93079      0.11393      0.14473  1.0000
  O3          0.25207      0.12529      0.35904  1.0000
  O3          0.92159      0.79368      0.02756  1.0000
  O3          0.90538      0.12369      0.69237  1.0000
  O3          0.80607      0.89827      0.86138  1.0000
  O2          0.13915      0.24646      0.53106  1.0000
  O2          0.15400      0.91150      0.19741  1.0000
  O2          0.97709      0.88969      0.25294  1.0000
  O2          0.15560      0.08795      0.58534  1.0000
  O2          0.95351      0.06865      0.91894  1.0000
  O2          0.07211      0.14430      0.75145  1.0000
  O2          0.90354      0.94342      0.08618  1.0000
  O2          0.10738      0.96317      0.41882  1.0000
  O3          0.89728      0.18699      0.97887  1.0000
  O3          0.85967      0.70950      0.31129  1.0000
  O3          0.32434      0.14918      0.64765  1.0000
  O3          0.16150      0.85013      0.48068  1.0000
  O3          0.19154      0.31589      0.81258  1.0000
  O3          0.73772      0.89170      0.14884  1.0000
  O3          0.22131      0.90162      0.35815  1.0000
  O3          0.72225      0.81643      0.02897  1.0000
  O3          0.12915      0.32082      0.69282  1.0000
  O3          0.82539      0.11780      0.86064  1.0000
  O3          0.33425      0.21440      0.52754  1.0000
  O3          0.92899      0.71389      0.19515  1.0000
  O1          0.33394      0.65530      0.25433  1.0000
  O1          0.41549      0.72230      0.58427  1.0000
  O1          0.31331      0.69392      0.91699  1.0000
  O1          0.72859      0.40346      0.75334  1.0000
  O1          0.64565      0.33777      0.08677  1.0000
  O1          0.70697      0.30466      0.41800  1.0000
  O1          0.37356      0.33680      0.96436  1.0000
  O3          0.70127      0.02373      0.31210  1.0000
  O1          0.99926      0.67033      0.63199  1.0000
  O1          0.68378      0.66947      0.48126  1.0000
  O3          0.36844      0.02146      0.81236  1.0000
  O1          0.04493      0.36899      0.14741  1.0000
  O1          0.36838      0.38094      0.37555  1.0000
  O1          0.05865      0.67302      0.04228  1.0000
  O1          0.64937      0.98785      0.70822  1.0000
  O1          0.64855      0.64319      0.85544  1.0000
  O3          0.03754      0.38949      0.52454  1.0000
  O3          0.39688      0.04917      0.20702  1.0000
  O1          0.75848      0.27939      0.01820  1.0000
  O1          0.76945      0.47643      0.35033  1.0000
  O1          0.55699      0.28781      0.68488  1.0000
  O1          0.27538      0.71580      0.50840  1.0000
  O1          0.32495      0.56368      0.84084  1.0000
  O1          0.50332      0.75811      0.18646  1.0000
  O1          0.35003      0.78358      0.33254  1.0000
  O1          0.48805      0.73408      0.99217  1.0000
  O1          0.28033      0.55487      0.65916  1.0000
  O1          0.71088      0.25256      0.83327  1.0000
  O1          0.58254      0.32629      0.49892  1.0000
  O1          0.79277      0.46729      0.16699  1.0000
  O1          0.79999      0.53330      0.02431  1.0000
  O1          0.51489      0.27682      0.35547  1.0000
  O1          0.77081      0.24769      0.69071  1.0000
  O3          0.27532      0.48982      0.54107  1.0000
  O1          0.54500      0.79220      0.87298  1.0000
  O3          0.29899      0.81122      0.19278  1.0000
  O3          0.57568      0.77673      0.30222  1.0000
  O1          0.25220      0.47771      0.98319  1.0000
  O1          0.26372      0.79336      0.65032  1.0000
  O3          0.47672      0.26279      0.80177  1.0000
  O1          0.82725      0.55421      0.46940  1.0000
  O1          0.78314      0.22655      0.14039  1.0000
  O1          0.20959      0.35744      0.90118  1.0000
  O3          0.71951      0.92533      0.23682  1.0000
  O1          0.17837      0.82977      0.56826  1.0000
  O1          0.81128      0.69642      0.39859  1.0000
  O3          0.34182      0.11111      0.73555  1.0000
  O1          0.93471      0.23596      0.06680  1.0000
  O1          0.38221      0.22073      0.43817  1.0000
  O1          0.89020      0.66576      0.10609  1.0000
  O1          0.81399      0.15452      0.77215  1.0000
  O1          0.69792      0.77100      0.93901  1.0000
  O3          0.11209      0.34887      0.60235  1.0000
  O3          0.25354      0.88990      0.26952  1.0000
  O1          0.57667      0.56660      0.99969  1.0000
  O1          0.46836      0.04533      0.32792  1.0000
  O1          0.02314      0.46425      0.66434  1.0000
  O1          0.43874      0.44640      0.48602  1.0000
  O1          0.58698      0.99143      0.81962  1.0000
  O1          0.05731      0.60768      0.15521  1.0000
  O1          0.60329      0.56310      0.33848  1.0000
  O1          0.01097      0.44188      0.00618  1.0000
  O1          0.46655      0.03489      0.67239  1.0000
  O1          0.42791      0.40765      0.85448  1.0000
  O1          0.01793      0.60889      0.51883  1.0000
  O1          0.59545      0.00762      0.17389  1.0000
  O1          0.63400      0.16684      0.24796  1.0000
  O1          0.88924      0.43745      0.58459  1.0000
  O1          0.60898      0.46563      0.91985  1.0000
  O1          0.41293      0.88185      0.74732  1.0000
  O1          0.16717      0.54551      0.08120  1.0000
  O1          0.50688      0.61929      0.41404  1.0000
  F           0.49804      0.92801      0.26357  1.0000
  F           0.17789      0.61296      0.59507  1.0000
  F           0.43324      0.57537      0.92787  1.0000
  F           0.59158      0.16656      0.75955  1.0000
  F           0.88408      0.42888      0.09481  1.0000
  F           0.61760      0.45423      0.42748  1.0000
