data_cif

_audit_creation_method             'generated by GULP'

_symmetry_space_group_name_H-M     'P 1'
_symmetry_Int_Tables_number        1
_symmetry_cell_setting             triclinic

_cell_length_a                       12.3317
_cell_length_b                       12.3732
_cell_length_c                       30.2438
_cell_angle_alpha                   90.9132
_cell_angle_beta                    89.1046
_cell_angle_gamma                  119.9000

loop_
_atom_site_label
_atom_site_fract_x
_atom_site_fract_y
_atom_site_fract_z
_atom_site_occupancy
  Ge          0.69960      0.37570      0.03389  1.0000
  Ge          0.63643      0.32822      0.36950  1.0000
  Ge          0.68283      0.30075      0.70027  1.0000
  Ge          0.31906      0.62342      0.53285  1.0000
  Ge          0.37129      0.67583      0.86734  1.0000
  Ge          0.33949      0.71031      0.20425  1.0000
  Ge          0.37725      0.68207      0.30259  1.0000
  Ge          0.30715      0.61860      0.97252  1.0000
  Ge          0.31655      0.68391      0.63733  1.0000
  Ge          0.61749      0.30128      0.80429  1.0000
  Ge          0.70807      0.37296      0.46883  1.0000
  Ge          0.69846      0.31670      0.13746  1.0000
  Ge          0.52483      0.41565      0.97004  1.0000
  Ge          0.58048      0.10568      0.30604  1.0000
  Ge          0.90086      0.47389      0.63592  1.0000
  Ge          0.49456      0.57097      0.47107  1.0000
  Ge          0.41574      0.89197      0.80365  1.0000
  Ge          0.12488      0.53858      0.13707  1.0000
  Ge          0.42879      0.51395      0.36655  1.0000
  Ge          0.08475      0.56717      0.03725  1.0000
  Ge          0.48537      0.90347      0.70348  1.0000
  Ge          0.57219      0.47836      0.87003  1.0000
  Ge          0.92536      0.42462      0.53576  1.0000
  Ge          0.52039      0.09708      0.20176  1.0000
  Ge          0.29445      0.39341      0.84860  1.0000
  Ge          0.61335      0.89686      0.18293  1.0000
  Ge          0.11599      0.70159      0.51300  1.0000
  Ge          0.72087      0.60032      0.34847  1.0000
  Ge          0.40131      0.09585      0.68295  1.0000
  Ge          0.90259      0.29160      0.01504  1.0000
  Ge          0.41662      0.28137      0.48218  1.0000
  Ge          0.90146      0.60620      0.14821  1.0000
  Ge          0.70736      0.10092      0.81732  1.0000
  Ge          0.59814      0.70432      0.98513  1.0000
  Ge          0.11353      0.39629      0.64966  1.0000
  Ge          0.29354      0.88393      0.31482  1.0000
  Ge          0.24037      0.33284      0.95273  1.0000
  Ge          0.66224      0.89954      0.28595  1.0000
  Ge          0.10218      0.75526      0.61713  1.0000
  Si          0.77430      0.65442      0.45084  1.0000
  Si          0.33649      0.08938      0.78516  1.0000
  Ge          0.91926      0.24958      0.11828  1.0000
  Ge          0.35063      0.22946      0.37819  1.0000
  Si          0.89783      0.65937      0.04641  1.0000
  Ge          0.76471      0.09235      0.71394  1.0000
  Ge          0.66337      0.75874      0.88135  1.0000
  Ge          0.11299      0.33163      0.54638  1.0000
  Si          0.23976      0.89411      0.21355  1.0000
  Si          0.96339      0.10733      0.96596  1.0000
  Si          0.88688      0.85139      0.29949  1.0000
  Si          0.15956      0.03299      0.63183  1.0000
  Si          0.04511      0.87572      0.46431  1.0000
  Si          0.11887      0.14793      0.79804  1.0000
  Si          0.86604      0.97488      0.13263  1.0000
  Si          0.11885      0.95863      0.36472  1.0000
  Si          0.84626      0.87968      0.03339  1.0000
  Si          0.04333      0.15181      0.69856  1.0000
  Si          0.88672      0.03408      0.86540  1.0000
  Si          0.16634      0.10727      0.53103  1.0000
  Si          0.97060      0.85253      0.19946  1.0000
  O2          0.91972      0.98763      0.99729  1.0000
  O2          0.00184      0.92201      0.33312  1.0000
  O2          0.08678      0.07896      0.66473  1.0000
  O2          0.08283      0.98704      0.49997  1.0000
  O2          0.00378      0.07295      0.83198  1.0000
  O2          0.94207      0.93326      0.16496  1.0000
  O1          0.34141      0.56276      0.33831  1.0000
  O1          0.43731      0.76731      0.67040  1.0000
  O1          0.21784      0.65761      0.00261  1.0000
  O1          0.65579      0.42363      0.83698  1.0000
  O1          0.57061      0.22945      0.17012  1.0000
  O1          0.78950      0.33876      0.50345  1.0000
  O1          0.56739      0.33395      0.00428  1.0000
  O1          0.77596      0.43378      0.67075  1.0000
  O1          0.67329      0.23106      0.33617  1.0000
  O1          0.45518      0.65991      0.50359  1.0000
  O1          0.24676      0.57998      0.17014  1.0000
  O1          0.33094      0.76974      0.83848  1.0000
  O3          0.10875      0.20246      0.97443  1.0000
  O3          0.79482      0.90420      0.30888  1.0000
  O3          0.10306      0.88683      0.63928  1.0000
  O2          0.89728      0.77591      0.47139  1.0000
  O2          0.21572      0.09629      0.80444  1.0000
  O3          0.92356      0.12098      0.14015  1.0000
  O3          0.21506      0.10249      0.35712  1.0000
  O2          0.89191      0.77797      0.02688  1.0000
  O3          0.89819      0.09889      0.69061  1.0000
  O3          0.79082      0.88916      0.85796  1.0000
  O3          0.12171      0.20629      0.52312  1.0000
  O2          0.11841      0.89843      0.19516  1.0000
  O2          0.93812      0.87781      0.24895  1.0000
  O2          0.13915      0.06074      0.58170  1.0000
  O2          0.94017      0.05901      0.91520  1.0000
  O2          0.06567      0.12225      0.74848  1.0000
  O2          0.88442      0.94288      0.08181  1.0000
  O2          0.07098      0.93440      0.41569  1.0000
  O3          0.88729      0.17856      0.97585  1.0000
  O3          0.81734      0.70461      0.30821  1.0000
  O3          0.30498      0.10473      0.64303  1.0000
  O3          0.12199      0.80617      0.47288  1.0000
  O3          0.18904      0.29313      0.80851  1.0000
  O3          0.71938      0.90423      0.14242  1.0000
  O3          0.18610      0.87929      0.35419  1.0000
  O3          0.69892      0.80865      0.02579  1.0000
  O3          0.11648      0.29917      0.69081  1.0000
  O3          0.81298      0.10800      0.85730  1.0000
  O3          0.31329      0.17390      0.52125  1.0000
  O3          0.89239      0.70820      0.18712  1.0000
  O1          0.34138      0.62526      0.24963  1.0000
  O1          0.36241      0.70156      0.58201  1.0000
  O1          0.29618      0.64520      0.91701  1.0000
  O1          0.65046      0.34665      0.74973  1.0000
  O1          0.65050      0.34298      0.08776  1.0000
  O1          0.72265      0.33394      0.41522  1.0000
  O1          0.36602      0.31458      0.96318  1.0000
  O1          0.67593      0.04110      0.29422  1.0000
  O1          0.95668      0.63113      0.62701  1.0000
  O3          0.65357      0.66888      0.46038  1.0000
  O3          0.31695      0.95387      0.79502  1.0000
  O1          0.03315      0.37683      0.14425  1.0000
  O1          0.35402      0.35691      0.35491  1.0000
  O3          0.03259      0.67742      0.03536  1.0000
  O1          0.64330      0.96490      0.68994  1.0000
  O1          0.66690      0.63505      0.85717  1.0000
  O1          0.98945      0.33058      0.52177  1.0000
  O3          0.36189      0.00571      0.18984  1.0000
  O1          0.75911      0.28392      0.01468  1.0000
  O1          0.70911      0.46102      0.33569  1.0000
  O1          0.54599      0.21886      0.67085  1.0000
  O1          0.24098      0.67928      0.50208  1.0000
  O1          0.31607      0.53839      0.83743  1.0000
  O1          0.47170      0.77348      0.16934  1.0000
  O1          0.27801      0.73927      0.31670  1.0000
  O1          0.46511      0.71372      0.98572  1.0000
  O1          0.25745      0.52664      0.64838  1.0000
  O1          0.71478      0.24181      0.81717  1.0000
  O1          0.54959      0.27362      0.48270  1.0000
  O1          0.78705      0.45953      0.16303  1.0000
  O3          0.79240      0.53425      0.02194  1.0000
  O1          0.47440      0.21486      0.36053  1.0000
  O1          0.77479      0.23150      0.70027  1.0000
  O1          0.25265      0.46297      0.53345  1.0000
  O1          0.53265      0.76596      0.86735  1.0000
  O3          0.22910      0.76388      0.20101  1.0000
  O1          0.53427      0.78407      0.31255  1.0000
  O1          0.26522      0.46407      0.98062  1.0000
  O1          0.20242      0.72455      0.64528  1.0000
  O3          0.46087      0.18617      0.81075  1.0000
  O3          0.75009      0.53074      0.47497  1.0000
  O1          0.77563      0.23471      0.13000  1.0000
  O1          0.21307      0.33376      0.89742  1.0000
  O1          0.67109      0.87045      0.23065  1.0000
  O1          0.13620      0.78348      0.56195  1.0000
  O3          0.79956      0.65615      0.39851  1.0000
  O3          0.34204      0.11639      0.73313  1.0000
  O1          0.93490      0.23694      0.06245  1.0000
  O1          0.33026      0.22589      0.43476  1.0000
  O3          0.86742      0.65216      0.09874  1.0000
  O1          0.76930      0.07376      0.77001  1.0000
  O1          0.68457      0.76488      0.93753  1.0000
  O1          0.08772      0.30792      0.60236  1.0000
  O3          0.24355      0.91792      0.26636  1.0000
  O1          0.56261      0.55512      0.99668  1.0000
  O1          0.44292      0.98889      0.32946  1.0000
  O1          0.00350      0.43804      0.66186  1.0000
  O1          0.45763      0.43266      0.49590  1.0000
  O1          0.55639      0.98968      0.82941  1.0000
  O1          0.04176      0.61527      0.15013  1.0000
  O1          0.57971      0.59592      0.34598  1.0000
  O1          0.02134      0.43567      0.00103  1.0000
  O1          0.39673      0.95685      0.67555  1.0000
  O1          0.43024      0.39013      0.84188  1.0000
  O1          0.97846      0.56576      0.50727  1.0000
  O1          0.61068      0.03484      0.18330  1.0000
  O1          0.54238      0.14362      0.25561  1.0000
  O1          0.84801      0.39664      0.58657  1.0000
  O1          0.59933      0.43064      0.92040  1.0000
  O1          0.43251      0.83101      0.75438  1.0000
  O1          0.17106      0.57082      0.08259  1.0000
  O1          0.41592      0.53958      0.42181  1.0000
  F           0.43872      0.86184      0.24293  1.0000
  F           0.08747      0.52969      0.57249  1.0000
  F           0.46732      0.53759      0.90821  1.0000
  F           0.54840      0.06883      0.74002  1.0000
  F           0.92964      0.45967      0.07432  1.0000
  F           0.56784      0.41635      0.40514  1.0000
