data_cif

_audit_creation_method             'generated by GULP'

_symmetry_space_group_name_H-M     'P 1'
_symmetry_Int_Tables_number        1
_symmetry_cell_setting             triclinic

_cell_length_a                       12.3752
_cell_length_b                       12.3779
_cell_length_c                       30.1308
_cell_angle_alpha                   89.9913
_cell_angle_beta                    89.7566
_cell_angle_gamma                  120.0042

loop_
_atom_site_label
_atom_site_fract_x
_atom_site_fract_y
_atom_site_fract_z
_atom_site_occupancy
  Ge          0.69960      0.37570      0.03389  1.0000
  Ge          0.67713      0.33977      0.36588  1.0000
  Ge          0.70948      0.34882      0.69897  1.0000
  Ge          0.35125      0.66357      0.53036  1.0000
  Ge          0.38391      0.69617      0.86335  1.0000
  Ge          0.34680      0.69891      0.19836  1.0000
  Ge          0.41373      0.72106      0.29763  1.0000
  Ge          0.34324      0.63534      0.96363  1.0000
  Ge          0.32817      0.70957      0.62962  1.0000
  Ge          0.63345      0.31289      0.79811  1.0000
  Ge          0.71617      0.41050      0.46533  1.0000
  Ge          0.73117      0.33564      0.13328  1.0000
  Ge          0.52966      0.42796      0.96938  1.0000
  Ge          0.62226      0.11548      0.30185  1.0000
  Ge          0.93230      0.52075      0.63392  1.0000
  Ge          0.52624      0.61538      0.46528  1.0000
  Ge          0.42933      0.91653      0.79839  1.0000
  Ge          0.12605      0.52629      0.13253  1.0000
  Ge          0.47315      0.55739      0.35987  1.0000
  Ge          0.12116      0.58092      0.02706  1.0000
  Ge          0.49480      0.92867      0.69296  1.0000
  Ge          0.58384      0.48190      0.86357  1.0000
  Ge          0.93869      0.46511      0.52811  1.0000
  Ge          0.56178      0.11142      0.19601  1.0000
  Si          0.30061      0.41510      0.85205  1.0000
  Ge          0.63519      0.89541      0.18539  1.0000
  Ge          0.15488      0.75481      0.51749  1.0000
  Ge          0.76111      0.62447      0.35081  1.0000
  Ge          0.42532      0.14748      0.68359  1.0000
  Ge          0.90095      0.29255      0.01826  1.0000
  Ge          0.44100      0.32499      0.48576  1.0000
  Ge          0.92023      0.61071      0.15302  1.0000
  Ge          0.71882      0.12470      0.81957  1.0000
  Ge          0.61481      0.72032      0.98696  1.0000
  Ge          0.13846      0.43634      0.65070  1.0000
  Ge          0.33020      0.91080      0.31895  1.0000
  Ge          0.24573      0.35049      0.95482  1.0000
  Ge          0.69939      0.90778      0.29002  1.0000
  Ge          0.13972      0.80583      0.62206  1.0000
  Ge          0.81194      0.69586      0.45506  1.0000
  Ge          0.34949      0.12250      0.78773  1.0000
  Ge          0.92105      0.24036      0.12239  1.0000
  Ge          0.39019      0.27100      0.38176  1.0000
  Ge          0.91720      0.66301      0.04890  1.0000
  Ge          0.77958      0.13172      0.71559  1.0000
  Ge          0.67099      0.77020      0.88232  1.0000
  Si          0.13764      0.38216      0.54818  1.0000
  Si          0.27932      0.91292      0.21619  1.0000
  Si          0.97257      0.11859      0.96750  1.0000
  Si          0.93304      0.87106      0.30131  1.0000
  Si          0.17971      0.07690      0.63444  1.0000
  Si          0.08251      0.93053      0.46813  1.0000
  Si          0.12639      0.17198      0.80186  1.0000
  Si          0.88390      0.96914      0.13526  1.0000
  Si          0.16406      0.99830      0.36727  1.0000
  Si          0.86795      0.88737      0.03457  1.0000
  Si          0.05569      0.18565      0.70084  1.0000
  Si          0.89040      0.04450      0.86758  1.0000
  Si          0.18739      0.16112      0.53482  1.0000
  Si          0.00908      0.86378      0.20169  1.0000
  O2          0.93397      0.00033      0.99932  1.0000
  O2          0.05167      0.95352      0.33231  1.0000
  O2          0.10206      0.11643      0.66695  1.0000
  O2          0.11776      0.05122      0.49864  1.0000
  O2          0.00382      0.09911      0.83221  1.0000
  O2          0.97039      0.93358      0.16498  1.0000
  O1          0.37834      0.58695      0.32950  1.0000
  O1          0.46300      0.80601      0.66123  1.0000
  O1          0.24502      0.67184      0.99558  1.0000
  O1          0.66943      0.44559      0.83098  1.0000
  O1          0.59684      0.23774      0.16601  1.0000
  O1          0.81350      0.37378      0.49790  1.0000
  O1          0.57666      0.34118      0.99975  1.0000
  O1          0.79646      0.47058      0.66372  1.0000
  O1          0.71032      0.25145      0.33084  1.0000
  O1          0.46912      0.69688      0.49376  1.0000
  O1          0.26353      0.58253      0.16141  1.0000
  O1          0.34623      0.77619      0.82616  1.0000
  O3          0.11798      0.21361      0.97435  1.0000
  O3          0.83461      0.91566      0.31080  1.0000
  O3          0.13002      0.93247      0.64289  1.0000
  O3          0.93816      0.83225      0.47602  1.0000
  O3          0.20957      0.10844      0.80756  1.0000
  O3          0.93034      0.11338      0.14324  1.0000
  O3          0.25901      0.14271      0.35856  1.0000
  O3          0.91980      0.79418      0.02569  1.0000
  O3          0.91004      0.13046      0.69316  1.0000
  O3          0.80408      0.89820      0.85916  1.0000
  O2          0.13742      0.25889      0.52819  1.0000
  O2          0.15710      0.91364      0.19581  1.0000
  O2          0.97935      0.89766      0.25007  1.0000
  O2          0.15341      0.10014      0.58367  1.0000
  O2          0.94819      0.07019      0.91680  1.0000
  O2          0.08276      0.16146      0.75104  1.0000
  O2          0.90365      0.94493      0.08389  1.0000
  O2          0.10757      0.97628      0.41692  1.0000
  O3          0.89665      0.18886      0.97769  1.0000
  O3          0.86713      0.72447      0.31065  1.0000
  O3          0.32680      0.15287      0.64306  1.0000
  O3          0.16124      0.86324      0.47848  1.0000
  O2          0.20887      0.31884      0.81423  1.0000
  O3          0.73808      0.89001      0.14635  1.0000
  O3          0.23378      0.92036      0.35931  1.0000
  O3          0.71998      0.81419      0.02799  1.0000
  O3          0.12998      0.33210      0.69130  1.0000
  O3          0.80897      0.11075      0.86133  1.0000
  O3          0.33426      0.23183      0.52692  1.0000
  O3          0.93319      0.71699      0.19401  1.0000
  O1          0.32797      0.63970      0.25082  1.0000
  O1          0.40954      0.70441      0.58275  1.0000
  O1          0.34401      0.71650      0.91579  1.0000
  O1          0.72349      0.39975      0.75250  1.0000
  O1          0.64699      0.33933      0.08742  1.0000
  O1          0.71328      0.32304      0.41925  1.0000
  O1          0.37154      0.35429      0.97979  1.0000
  O1          0.69450      0.03092      0.31396  1.0000
  O1          0.01600      0.67763      0.64597  1.0000
  O1          0.68226      0.68908      0.47875  1.0000
  O1          0.35487      0.99884      0.81133  1.0000
  O1          0.04414      0.36973      0.14571  1.0000
  O1          0.37780      0.39901      0.37279  1.0000
  O1          0.05830      0.67637      0.03952  1.0000
  O1          0.65268      0.99076      0.70572  1.0000
  O1          0.68165      0.64101      0.87342  1.0000
  O3          0.00605      0.37139      0.53947  1.0000
  O3          0.40050      0.04431      0.20723  1.0000
  O1          0.75587      0.27736      0.01864  1.0000
  O1          0.77589      0.49432      0.35078  1.0000
  O1          0.55495      0.29267      0.68401  1.0000
  O1          0.29703      0.76368      0.51545  1.0000
  O3          0.28707      0.53713      0.85074  1.0000
  O1          0.50162      0.75345      0.18359  1.0000
  O1          0.34078      0.78235      0.33135  1.0000
  O1          0.47494      0.70946      0.99853  1.0000
  O1          0.26566      0.57563      0.66332  1.0000
  O1          0.70137      0.24877      0.83272  1.0000
  O1          0.58213      0.34112      0.49922  1.0000
  O1          0.79549      0.46937      0.16691  1.0000
  O1          0.80213      0.53234      0.02362  1.0000
  O1          0.52044      0.28537      0.35616  1.0000
  O1          0.76567      0.24746      0.68991  1.0000
  O3          0.24494      0.50448      0.52372  1.0000
  O1          0.54199      0.75534      0.85577  1.0000
  O3          0.29433      0.80552      0.19199  1.0000
  O1          0.57568      0.77007      0.30712  1.0000
  O1          0.23125      0.47325      0.97203  1.0000
  O1          0.27777      0.82103      0.63912  1.0000
  O1          0.47122      0.25966      0.80571  1.0000
  O1          0.82561      0.57233      0.47274  1.0000
  O1          0.78379      0.22635      0.14044  1.0000
  O3          0.24958      0.33666      0.89742  1.0000
  O1          0.71964      0.92400      0.23322  1.0000
  O1          0.12513      0.81074      0.56530  1.0000
  O1          0.81563      0.71245      0.39823  1.0000
  O1          0.33530      0.11076      0.73080  1.0000
  O1          0.93443      0.23729      0.06551  1.0000
  O1          0.38564      0.23990      0.43757  1.0000
  O1          0.89065      0.66633      0.10479  1.0000
  O1          0.80602      0.15499      0.77158  1.0000
  O1          0.67555      0.80174      0.93795  1.0000
  O3          0.16243      0.38119      0.60057  1.0000
  O3          0.25275      0.88836      0.26864  1.0000
  O1          0.60973      0.57863      0.98944  1.0000
  O1          0.47127      0.04643      0.32213  1.0000
  O1          0.00154      0.43920      0.65387  1.0000
  O1          0.44317      0.46482      0.48536  1.0000
  O1          0.57924      0.98601      0.81895  1.0000
  O1          0.05802      0.60881      0.15259  1.0000
  O1          0.61043      0.57669      0.33657  1.0000
  O1          0.00396      0.44346      0.00415  1.0000
  O1          0.47635      0.04672      0.66976  1.0000
  O3          0.44378      0.46018      0.84145  1.0000
  O1          0.04946      0.60410      0.50404  1.0000
  O1          0.59015      0.00105      0.17181  1.0000
  O1          0.63692      0.15145      0.24673  1.0000
  O1          0.89659      0.49933      0.57888  1.0000
  O1          0.55459      0.40981      0.91478  1.0000
  O1          0.41403      0.88509      0.74299  1.0000
  O1          0.16182      0.54299      0.07736  1.0000
  O1          0.51208      0.63590      0.41013  1.0000
  F           0.48069      0.87410      0.26164  1.0000
  F           0.17458      0.62219      0.59343  1.0000
  F           0.43861      0.57614      0.92908  1.0000
  F           0.57649      0.16327      0.75995  1.0000
  F           0.88334      0.42803      0.09453  1.0000
  F           0.62457      0.47049      0.42694  1.0000
