data_cif

_audit_creation_method             'generated by GULP'

_symmetry_space_group_name_H-M     'P 1'
_symmetry_Int_Tables_number        1
_symmetry_cell_setting             triclinic

_cell_length_a                       12.3116
_cell_length_b                       12.3342
_cell_length_c                       30.2604
_cell_angle_alpha                   89.9555
_cell_angle_beta                    90.0281
_cell_angle_gamma                  119.8664

loop_
_atom_site_label
_atom_site_fract_x
_atom_site_fract_y
_atom_site_fract_z
_atom_site_occupancy
  Ge          0.69960      0.37570      0.03389  1.0000
  Ge          0.62755      0.30562      0.36706  1.0000
  Ge          0.69617      0.30097      0.70027  1.0000
  Ge          0.30371      0.60377      0.53204  1.0000
  Ge          0.39314      0.68232      0.86444  1.0000
  Ge          0.32355      0.69832      0.19855  1.0000
  Ge          0.35831      0.65535      0.29619  1.0000
  Ge          0.31837      0.64309      0.96286  1.0000
  Ge          0.34634      0.68087      0.62964  1.0000
  Ge          0.64824      0.32108      0.79904  1.0000
  Ge          0.69793      0.34963      0.46591  1.0000
  Ge          0.67411      0.30544      0.13280  1.0000
  Ge          0.53992      0.43790      0.97056  1.0000
  Ge          0.56374      0.08447      0.30373  1.0000
  Ge          0.91755      0.45862      0.63714  1.0000
  Ge          0.46995      0.54944      0.46505  1.0000
  Ge          0.44738      0.90173      0.79812  1.0000
  Ge          0.10243      0.53187      0.13175  1.0000
  Ge          0.41728      0.49100      0.36018  1.0000
  Ge          0.09514      0.58391      0.02685  1.0000
  Ge          0.50895      0.90383      0.69366  1.0000
  Ge          0.59747      0.49093      0.86582  1.0000
  Ge          0.91684      0.39997      0.53275  1.0000
  Ge          0.50584      0.08582      0.19931  1.0000
  Ge          0.30684      0.40512      0.84533  1.0000
  Ge          0.59946      0.88595      0.17895  1.0000
  Ge          0.11608      0.69268      0.51237  1.0000
  Ge          0.70621      0.57693      0.34303  1.0000
  Ge          0.42417      0.10824      0.67780  1.0000
  Ge          0.89203      0.29581      0.00965  1.0000
  Ge          0.40445      0.25911      0.47730  1.0000
  Ge          0.87713      0.59802      0.14418  1.0000
  Ge          0.74165      0.12144      0.81010  1.0000
  Ge          0.60415      0.72514      0.98002  1.0000
  Ge          0.14223      0.39559      0.64536  1.0000
  Ge          0.27678      0.85999      0.31216  1.0000
  Ge          0.25123      0.35645      0.94841  1.0000
  Ge          0.64443      0.87609      0.28209  1.0000
  Ge          0.12529      0.74681      0.61552  1.0000
  Ge          0.76005      0.63394      0.44779  1.0000
  Si          0.36818      0.10688      0.78051  1.0000
  Ge          0.89658      0.24268      0.11449  1.0000
  Ge          0.34084      0.20342      0.37483  1.0000
  Ge          0.88411      0.66149      0.04169  1.0000
  Ge          0.79691      0.11596      0.70735  1.0000
  Ge          0.67885      0.77781      0.87663  1.0000
  Si          0.12195      0.32221      0.54398  1.0000
  Si          0.22374      0.88068      0.21068  1.0000
  Si          0.97871      0.12907      0.96273  1.0000
  Si          0.87167      0.83076      0.29673  1.0000
  Si          0.17005      0.01887      0.63035  1.0000
  Si          0.03229      0.86336      0.46307  1.0000
  Si          0.14367      0.15383      0.79486  1.0000
  Si          0.85399      0.97063      0.12973  1.0000
  Si          0.10537      0.93543      0.36211  1.0000
  Si          0.85070      0.89667      0.02904  1.0000
  Si          0.06517      0.14851      0.69482  1.0000
  Si          0.91442      0.04698      0.86230  1.0000
  Si          0.16016      0.09207      0.53059  1.0000
  Si          0.95536      0.84261      0.19726  1.0000
  O2          0.93109      0.01473      0.99721  1.0000
  O2          0.98602      0.89914      0.33110  1.0000
  O2          0.09924      0.06314      0.66428  1.0000
  O2          0.07527      0.97965      0.49684  1.0000
  O2          0.03384      0.08049      0.83091  1.0000
  O2          0.92744      0.92728      0.16343  1.0000
  O1          0.32394      0.52958      0.32926  1.0000
  O1          0.47166      0.77266      0.66277  1.0000
  O1          0.22648      0.67712      0.99593  1.0000
  O1          0.68035      0.43670      0.83633  1.0000
  O1          0.55336      0.21973      0.16877  1.0000
  O1          0.78315      0.31407      0.50203  1.0000
  O1          0.56613      0.34130      0.00149  1.0000
  O1          0.79508      0.43410      0.66812  1.0000
  O1          0.66140      0.20666      0.33454  1.0000
  O1          0.42758      0.63511      0.49509  1.0000
  O1          0.23085      0.57455      0.16167  1.0000
  O1          0.35824      0.77691      0.82898  1.0000
  O3          0.12283      0.22532      0.97224  1.0000
  O3          0.77525      0.87814      0.30643  1.0000
  O3          0.12334      0.87553      0.63971  1.0000
  O3          0.88545      0.77134      0.46949  1.0000
  O2          0.24203      0.10313      0.79957  1.0000
  O3          0.90825      0.11711      0.13638  1.0000
  O3          0.20547      0.07844      0.35273  1.0000
  O3          0.89444      0.79685      0.01946  1.0000
  O3          0.92256      0.10650      0.68497  1.0000
  O3          0.81810      0.90119      0.85590  1.0000
  O2          0.11373      0.19369      0.52621  1.0000
  O2          0.10326      0.88875      0.19275  1.0000
  O2          0.92502      0.86707      0.24680  1.0000
  O2          0.13669      0.03729      0.58014  1.0000
  O2          0.96150      0.07478      0.91305  1.0000
  O2          0.08325      0.12348      0.74611  1.0000
  O2          0.88034      0.94404      0.07969  1.0000
  O2          0.06034      0.91656      0.41307  1.0000
  O3          0.89923      0.19869      0.96908  1.0000
  O3          0.80357      0.68205      0.30278  1.0000
  O3          0.31819      0.10084      0.63809  1.0000
  O3          0.10431      0.78778      0.47191  1.0000
  O3          0.21388      0.30016      0.80396  1.0000
  O3          0.70650      0.89838      0.13845  1.0000
  O3          0.16820      0.85191      0.35136  1.0000
  O3          0.70332      0.83176      0.02009  1.0000
  O3          0.15024      0.29439      0.68420  1.0000
  O3          0.84501      0.12341      0.85066  1.0000
  O3          0.30490      0.15782      0.51868  1.0000
  O3          0.87637      0.69799      0.18556  1.0000
  O1          0.31876      0.60463      0.24284  1.0000
  O1          0.39740      0.69257      0.57629  1.0000
  O1          0.30439      0.68141      0.90950  1.0000
  O1          0.71942      0.38392      0.74982  1.0000
  O1          0.61492      0.31807      0.08330  1.0000
  O1          0.68552      0.27827      0.41640  1.0000
  O1          0.38021      0.34530      0.95778  1.0000
  O1          0.65529      0.01550      0.29200  1.0000
  O1          0.98556      0.61866      0.62532  1.0000
  O1          0.62946      0.61100      0.47474  1.0000
  O3          0.38679      0.00324      0.80520  1.0000
  O1          0.00508      0.37258      0.14128  1.0000
  O1          0.32364      0.33128      0.36601  1.0000
  O1          0.02876      0.67768      0.03268  1.0000
  O1          0.66942      0.97147      0.69801  1.0000
  O1          0.66770      0.64685      0.85215  1.0000
  O3          0.00921      0.33287      0.52110  1.0000
  O3          0.34647      0.99358      0.18788  1.0000
  O1          0.74609      0.27943      0.00682  1.0000
  O1          0.72376      0.44823      0.34014  1.0000
  O1          0.55309      0.25300      0.67329  1.0000
  O1          0.23860      0.67241      0.49808  1.0000
  O1          0.32747      0.54812      0.83103  1.0000
  O1          0.45712      0.76339      0.16466  1.0000
  O1          0.26408      0.71583      0.31316  1.0000
  O1          0.47252      0.73881      0.97958  1.0000
  O1          0.28673      0.52652      0.64638  1.0000
  O1          0.71067      0.23755      0.82392  1.0000
  O1          0.55248      0.29233      0.49122  1.0000
  O1          0.76201      0.45057      0.15808  1.0000
  O1          0.76535      0.53532      0.01591  1.0000
  O1          0.46759      0.21185      0.34898  1.0000
  O1          0.79215      0.23677      0.68200  1.0000
  O3          0.25177      0.43990      0.52966  1.0000
  O1          0.55443      0.79265      0.86052  1.0000
  O3          0.21201      0.75111      0.19617  1.0000
  O1          0.51672      0.75326      0.30665  1.0000
  O1          0.25940      0.48523      0.97341  1.0000
  O1          0.24776      0.74087      0.64014  1.0000
  O3          0.48591      0.24138      0.79107  1.0000
  O1          0.78210      0.51060      0.45930  1.0000
  O1          0.75157      0.22152      0.12630  1.0000
  O1          0.21868      0.35032      0.89286  1.0000
  O1          0.65628      0.85478      0.22652  1.0000
  O1          0.14716      0.78013      0.55997  1.0000
  O1          0.75806      0.65854      0.39203  1.0000
  O3          0.34662      0.08105      0.72817  1.0000
  O1          0.92184      0.24363      0.05864  1.0000
  O1          0.34648      0.17137      0.43017  1.0000
  O1          0.84718      0.65628      0.09707  1.0000
  O1          0.82867      0.14806      0.76297  1.0000
  O1          0.69464      0.77938      0.93318  1.0000
  O3          0.10547      0.30901      0.59700  1.0000
  O3          0.22644      0.89638      0.26374  1.0000
  O1          0.56064      0.57515      0.99460  1.0000
  O1          0.42523      0.96854      0.32732  1.0000
  O1          0.03444      0.43686      0.66061  1.0000
  O1          0.39277      0.39035      0.47492  1.0000
  O1          0.60638      0.98169      0.80951  1.0000
  O1          0.01974      0.60856      0.14182  1.0000
  O1          0.55282      0.53223      0.33071  1.0000
  O1          0.00124      0.44859      0.99742  1.0000
  O1          0.46464      0.99704      0.66504  1.0000
  O1          0.44513      0.40342      0.84779  1.0000
  O1          0.97870      0.55160      0.51428  1.0000
  O1          0.59513      0.02319      0.18075  1.0000
  O1          0.52842      0.12751      0.25355  1.0000
  O1          0.87471      0.38055      0.58697  1.0000
  O1          0.61934      0.47578      0.92063  1.0000
  O1          0.43294      0.85842      0.74309  1.0000
  O1          0.13971      0.55005      0.07591  1.0000
  O1          0.45139      0.56898      0.40925  1.0000
  F           0.42169      0.84246      0.23924  1.0000
  F           0.15932      0.55750      0.57256  1.0000
  F           0.44831      0.58643      0.90504  1.0000
  F           0.61064      0.14769      0.73634  1.0000
  F           0.85226      0.43816      0.07046  1.0000
  F           0.56427      0.39464      0.40373  1.0000
