data_cif

_audit_creation_method             'generated by GULP'

_symmetry_space_group_name_H-M     'P 1'
_symmetry_Int_Tables_number        1
_symmetry_cell_setting             triclinic

_cell_length_a                       12.3389
_cell_length_b                       12.3566
_cell_length_c                       30.1408
_cell_angle_alpha                   90.3020
_cell_angle_beta                    89.6631
_cell_angle_gamma                  120.1826

loop_
_atom_site_label
_atom_site_fract_x
_atom_site_fract_y
_atom_site_fract_z
_atom_site_occupancy
  Ge          0.69960      0.37570      0.03389  1.0000
  Ge          0.65098      0.32349      0.36574  1.0000
  Ge          0.70745      0.32650      0.70038  1.0000
  Ge          0.32343      0.63235      0.51566  1.0000
  Ge          0.38976      0.68135      0.84958  1.0000
  Ge          0.33614      0.70535      0.18227  1.0000
  Ge          0.38466      0.69130      0.28133  1.0000
  Ge          0.33033      0.64041      0.94956  1.0000
  Ge          0.33533      0.69847      0.61495  1.0000
  Ge          0.64061      0.31372      0.79968  1.0000
  Ge          0.69130      0.38283      0.46570  1.0000
  Ge          0.70708      0.32404      0.13330  1.0000
  Ge          0.52559      0.43153      0.97578  1.0000
  Ge          0.59284      0.09149      0.30820  1.0000
  Ge          0.93237      0.50350      0.63994  1.0000
  Ge          0.48553      0.58205      0.44519  1.0000
  Ge          0.43960      0.89466      0.78087  1.0000
  Ge          0.12190      0.54350      0.11198  1.0000
  Ge          0.44106      0.51802      0.33917  1.0000
  Ge          0.09847      0.58471      0.00717  1.0000
  Ge          0.51152      0.92300      0.67544  1.0000
  Ge          0.58959      0.47597      0.86977  1.0000
  Ge          0.90423      0.43203      0.53450  1.0000
  Ge          0.54584      0.11131      0.20366  1.0000
  Si          0.30901      0.39841      0.84582  1.0000
  Ge          0.63012      0.90695      0.18006  1.0000
  Ge          0.11856      0.71870      0.51011  1.0000
  Ge          0.73742      0.59047      0.33516  1.0000
  Ge          0.43866      0.13897      0.67021  1.0000
  Ge          0.88419      0.29406      0.00252  1.0000
  Si          0.40778      0.30168      0.46928  1.0000
  Ge          0.91131      0.61809      0.13627  1.0000
  Ge          0.72652      0.10884      0.80536  1.0000
  Ge          0.59811      0.72738      0.98017  1.0000
  Ge          0.14807      0.42993      0.64521  1.0000
  Ge          0.30214      0.87567      0.31124  1.0000
  Ge          0.24369      0.35510      0.94873  1.0000
  Ge          0.67007      0.88362      0.28322  1.0000
  Ge          0.13880      0.78822      0.61325  1.0000
  Ge          0.77617      0.66811      0.43845  1.0000
  Ge          0.35781      0.10238      0.77412  1.0000
  Ge          0.91669      0.25251      0.10658  1.0000
  Ge          0.36495      0.23657      0.36642  1.0000
  Ge          0.89145      0.66213      0.03318  1.0000
  Ge          0.79634      0.12950      0.70224  1.0000
  Ge          0.67544      0.76608      0.87679  1.0000
  Ge          0.11175      0.34968      0.54122  1.0000
  Si          0.26035      0.90613      0.20905  1.0000
  Si          0.96651      0.12330      0.95761  1.0000
  Si          0.90274      0.84430      0.29066  1.0000
  Si          0.19002      0.06534      0.62366  1.0000
  Si          0.04660      0.89189      0.45741  1.0000
  Si          0.13724      0.15432      0.79239  1.0000
  Si          0.88034      0.98473      0.12556  1.0000
  Si          0.13281      0.95959      0.35725  1.0000
  Si          0.85131      0.89430      0.02529  1.0000
  Si          0.07389      0.18106      0.69152  1.0000
  Si          0.89934      0.03602      0.85782  1.0000
  Si          0.16365      0.12937      0.52283  1.0000
  Si          0.99313      0.86561      0.19129  1.0000
  O2          0.92428      0.00906      0.99140  1.0000
  O2          0.01741      0.91995      0.32429  1.0000
  O2          0.12042      0.11184      0.65752  1.0000
  O2          0.09125      0.00719      0.49194  1.0000
  O2          0.01457      0.08138      0.82311  1.0000
  O2          0.96329      0.94835      0.15723  1.0000
  O1          0.35014      0.54824      0.30650  1.0000
  O1          0.47822      0.80197      0.64185  1.0000
  O1          0.22218      0.67626      0.97490  1.0000
  O1          0.67283      0.42472      0.83992  1.0000
  O1          0.59750      0.24707      0.17461  1.0000
  O1          0.76280      0.34963      0.50814  1.0000
  O1          0.55683      0.34128      0.00821  1.0000
  O1          0.81088      0.46941      0.67353  1.0000
  O1          0.68559      0.21476      0.34038  1.0000
  O1          0.43406      0.66480      0.47518  1.0000
  O1          0.26115      0.60218      0.13959  1.0000
  O1          0.35687      0.75331      0.80721  1.0000
  O3          0.10949      0.22190      0.96770  1.0000
  O3          0.80313      0.88523      0.30386  1.0000
  O3          0.13932      0.92111      0.63402  1.0000
  O3          0.89800      0.80462      0.46230  1.0000
  O3          0.21739      0.08613      0.79501  1.0000
  O3          0.93714      0.13281      0.12849  1.0000
  O3          0.23260      0.10194      0.34730  1.0000
  O3          0.89349      0.79517      0.01256  1.0000
  O3          0.92952      0.13050      0.68125  1.0000
  O3          0.81192      0.88769      0.85276  1.0000
  O3          0.09510      0.20923      0.52040  1.0000
  O2          0.14298      0.91756      0.18970  1.0000
  O2          0.95293      0.88481      0.24030  1.0000
  O2          0.15948      0.08479      0.57324  1.0000
  O2          0.95472      0.07173      0.90732  1.0000
  O2          0.09330      0.15014      0.74189  1.0000
  O2          0.89241      0.94558      0.07534  1.0000
  O2          0.08390      0.94712      0.40794  1.0000
  O3          0.88320      0.18849      0.96316  1.0000
  O3          0.84234      0.69630      0.29569  1.0000
  O3          0.33860      0.14374      0.63026  1.0000
  O3          0.11052      0.81022      0.46764  1.0000
  O2          0.22462      0.29892      0.80730  1.0000
  O3          0.73577      0.91632      0.13911  1.0000
  O3          0.19475      0.87397      0.34974  1.0000
  O3          0.70290      0.83179      0.01998  1.0000
  O3          0.15250      0.32955      0.68503  1.0000
  O3          0.81756      0.10005      0.84785  1.0000
  O2          0.30838      0.21747      0.50792  1.0000
  O3          0.92010      0.72169      0.17803  1.0000
  O1          0.33522      0.62499      0.22816  1.0000
  O1          0.40121      0.71170      0.56237  1.0000
  O1          0.33876      0.71143      0.89831  1.0000
  O1          0.72042      0.39160      0.75299  1.0000
  O1          0.63103      0.32728      0.08676  1.0000
  O1          0.72186      0.33201      0.41700  1.0000
  O1          0.36264      0.36191      0.97852  1.0000
  O1          0.68553      0.02416      0.29749  1.0000
  O1          0.99984      0.66358      0.62922  1.0000
  O1          0.64516      0.68115      0.44250  1.0000
  O1          0.36771      0.97931      0.79500  1.0000
  O1          0.03358      0.38941      0.12862  1.0000
  O1          0.37067      0.35514      0.33686  1.0000
  O1          0.03265      0.67808      0.01923  1.0000
  O1          0.67184      0.99070      0.68628  1.0000
  O1          0.68870      0.63538      0.87271  1.0000
  O1          0.98891      0.36020      0.52031  1.0000
  O3          0.38855      0.01734      0.18875  1.0000
  O1          0.73652      0.27359      0.00581  1.0000
  O1          0.73363      0.45123      0.32961  1.0000
  O1          0.56801      0.28520      0.67266  1.0000
  O1          0.23222      0.68783      0.49300  1.0000
  O3          0.29767      0.52075      0.83833  1.0000
  O1          0.48488      0.79895      0.16061  1.0000
  O1          0.28283      0.72882      0.30941  1.0000
  O1          0.45817      0.72252      0.98576  1.0000
  O1          0.29440      0.55925      0.64272  1.0000
  O1          0.69597      0.22263      0.82247  1.0000
  O3          0.53044      0.29069      0.47682  1.0000
  O1          0.80375      0.47219      0.15534  1.0000
  O1          0.76754      0.53017      0.01203  1.0000
  O1          0.48937      0.21674      0.35577  1.0000
  O1          0.79701      0.25900      0.68209  1.0000
  O1          0.24817      0.47076      0.52077  1.0000
  O1          0.55007      0.74466      0.84571  1.0000
  O3          0.24556      0.77612      0.19244  1.0000
  O1          0.53917      0.75731      0.30383  1.0000
  O1          0.22316      0.47898      0.95949  1.0000
  O1          0.26822      0.78850      0.63336  1.0000
  O1          0.47882      0.23856      0.79465  1.0000
  O1          0.75474      0.54291      0.46958  1.0000
  O1          0.77675      0.23333      0.12495  1.0000
  O3          0.25211      0.32919      0.89195  1.0000
  O1          0.67786      0.86376      0.22624  1.0000
  O1          0.15346      0.81015      0.55639  1.0000
  O1          0.81347      0.66368      0.38433  1.0000
  O1          0.34675      0.09704      0.71760  1.0000
  O1          0.92700      0.24669      0.05015  1.0000
  O3          0.33854      0.24456      0.42321  1.0000
  O1          0.86668      0.66466      0.09005  1.0000
  O1          0.81833      0.14397      0.75907  1.0000
  O1          0.67100      0.80343      0.93092  1.0000
  O1          0.10613      0.33857      0.59774  1.0000
  O3          0.25760      0.91704      0.26207  1.0000
  O1          0.59117      0.58803      0.99041  1.0000
  O1          0.45019      0.97768      0.32986  1.0000
  O1          0.04469      0.47562      0.66262  1.0000
  O3          0.44908      0.44669      0.47474  1.0000
  O1          0.59072      0.96751      0.80093  1.0000
  O1          0.05399      0.62997      0.12801  1.0000
  O1          0.59747      0.58209      0.32444  1.0000
  O1          0.98398      0.44381      0.98474  1.0000
  O1          0.48402      0.03551      0.65278  1.0000
  O3          0.45429      0.44002      0.84017  1.0000
  O1          0.97702      0.58308      0.51450  1.0000
  O1          0.63573      0.04714      0.18737  1.0000
  O1          0.56019      0.14237      0.25881  1.0000
  O1          0.87981      0.42234      0.59015  1.0000
  O1          0.55939      0.41262      0.92101  1.0000
  O1          0.43005      0.87030      0.72521  1.0000
  O1          0.14813      0.55021      0.05642  1.0000
  O1          0.42268      0.55279      0.39387  1.0000
  F           0.45401      0.85533      0.24982  1.0000
  F           0.16691      0.59487      0.58099  1.0000
  F           0.43738      0.57982      0.92002  1.0000
  F           0.60276      0.15737      0.73455  1.0000
  F           0.86314      0.44000      0.06642  1.0000
  F           0.59010      0.43056      0.39522  1.0000
