data_cif

_audit_creation_method             'generated by GULP'

_symmetry_space_group_name_H-M     'P 1'
_symmetry_Int_Tables_number        1
_symmetry_cell_setting             triclinic

_cell_length_a                       12.3933
_cell_length_b                       12.4010
_cell_length_c                       30.1423
_cell_angle_alpha                   90.0912
_cell_angle_beta                    89.8840
_cell_angle_gamma                  120.1406

loop_
_atom_site_label
_atom_site_fract_x
_atom_site_fract_y
_atom_site_fract_z
_atom_site_occupancy
  Ge          0.69960      0.37570      0.03389  1.0000
  Ge          0.60773      0.30456      0.36733  1.0000
  Ge          0.68331      0.27851      0.70196  1.0000
  Ge          0.29214      0.59909      0.53476  1.0000
  Ge          0.38602      0.67128      0.86780  1.0000
  Ge          0.31866      0.69748      0.20042  1.0000
  Ge          0.35262      0.66185      0.29939  1.0000
  Ge          0.31449      0.62698      0.96686  1.0000
  Ge          0.31656      0.66137      0.63492  1.0000
  Ge          0.64177      0.31033      0.80117  1.0000
  Ge          0.67805      0.34471      0.46674  1.0000
  Ge          0.67492      0.30613      0.13332  1.0000
  Ge          0.52903      0.42872      0.97192  1.0000
  Ge          0.55462      0.08322      0.30405  1.0000
  Ge          0.90290      0.44788      0.63728  1.0000
  Ge          0.46037      0.54788      0.47050  1.0000
  Ge          0.43718      0.89090      0.80466  1.0000
  Ge          0.09790      0.52988      0.13709  1.0000
  Ge          0.40090      0.49062      0.36504  1.0000
  Ge          0.09297      0.58353      0.03139  1.0000
  Ge          0.49201      0.88298      0.69918  1.0000
  Ge          0.59237      0.48256      0.86611  1.0000
  Ge          0.89889      0.39310      0.53157  1.0000
  Ge          0.50115      0.08337      0.19830  1.0000
  Ge          0.30256      0.39784      0.84837  1.0000
  Si          0.58919      0.88466      0.17926  1.0000
  Ge          0.10557      0.68479      0.51295  1.0000
  Ge          0.69256      0.57773      0.34569  1.0000
  Ge          0.41042      0.09111      0.67924  1.0000
  Ge          0.88961      0.29212      0.01245  1.0000
  Ge          0.39266      0.26021      0.48099  1.0000
  Ge          0.87450      0.59170      0.14760  1.0000
  Ge          0.72528      0.10934      0.81520  1.0000
  Ge          0.60148      0.71766      0.98108  1.0000
  Si          0.11894      0.38079      0.64764  1.0000
  Ge          0.26621      0.86111      0.31347  1.0000
  Si          0.24739      0.34560      0.95095  1.0000
  Ge          0.63881      0.88239      0.28198  1.0000
  Ge          0.10377      0.73614      0.61749  1.0000
  Ge          0.74694      0.63113      0.44990  1.0000
  Ge          0.35478      0.09353      0.78330  1.0000
  Ge          0.89501      0.24173      0.11675  1.0000
  Ge          0.32200      0.20541      0.37690  1.0000
  Ge          0.88782      0.66212      0.04351  1.0000
  Ge          0.77760      0.08879      0.71097  1.0000
  Ge          0.67019      0.76733      0.87677  1.0000
  Ge          0.10445      0.31474      0.54490  1.0000
  Ge          0.21505      0.87848      0.20918  1.0000
  Si          0.97578      0.12534      0.96437  1.0000
  Si          0.86163      0.82988      0.29705  1.0000
  Si          0.15818      0.01035      0.63169  1.0000
  Si          0.02140      0.85334      0.46480  1.0000
  Si          0.13321      0.14737      0.79826  1.0000
  Si          0.84018      0.96805      0.13221  1.0000
  Si          0.09202      0.93283      0.36410  1.0000
  Si          0.84765      0.89460      0.03112  1.0000
  Si          0.04976      0.13718      0.69729  1.0000
  Si          0.90054      0.03908      0.86479  1.0000
  Si          0.14705      0.08452      0.53197  1.0000
  Si          0.94418      0.83736      0.19715  1.0000
  O2          0.93426      0.01649      0.00114  1.0000
  O2          0.97135      0.89307      0.33348  1.0000
  O2          0.09906      0.06447      0.66692  1.0000
  O2          0.06946      0.96700      0.49968  1.0000
  O2          0.01841      0.07968      0.83257  1.0000
  O2          0.90265      0.91570      0.16614  1.0000
  O1          0.31685      0.54130      0.33499  1.0000
  O1          0.43630      0.74349      0.67119  1.0000
  O1          0.23022      0.66364      0.00213  1.0000
  O1          0.67713      0.43056      0.83704  1.0000
  O1          0.55369      0.21816      0.16853  1.0000
  O1          0.76362      0.30857      0.50164  1.0000
  O1          0.56350      0.33822      0.00236  1.0000
  O1          0.78195      0.41292      0.67010  1.0000
  O1          0.64487      0.20861      0.33459  1.0000
  O1          0.42528      0.63692      0.50181  1.0000
  O1          0.22720      0.56723      0.16576  1.0000
  O1          0.34709      0.76635      0.83570  1.0000
  O2          0.12378      0.22282      0.97102  1.0000
  O3          0.77187      0.88645      0.30346  1.0000
  O3          0.09993      0.86445      0.64060  1.0000
  O3          0.87549      0.76273      0.47302  1.0000
  O3          0.22215      0.09044      0.80546  1.0000
  O3          0.90193      0.11430      0.13908  1.0000
  O3          0.18692      0.07777      0.35592  1.0000
  O3          0.89501      0.79761      0.02328  1.0000
  O3          0.90334      0.07524      0.69109  1.0000
  O3          0.80718      0.89441      0.85635  1.0000
  O3          0.09368      0.17705      0.52578  1.0000
  O3          0.08882      0.88783      0.18810  1.0000
  O2          0.92301      0.86209      0.24823  1.0000
  O2          0.12431      0.03410      0.58244  1.0000
  O2          0.94896      0.06322      0.91575  1.0000
  O2          0.08083      0.12436      0.74819  1.0000
  O2          0.86406      0.93701      0.08255  1.0000
  O2          0.04656      0.90998      0.41527  1.0000
  O3          0.90098      0.19736      0.97157  1.0000
  O3          0.78374      0.68228      0.30409  1.0000
  O3          0.30609      0.07833      0.63769  1.0000
  O3          0.09336      0.77804      0.47197  1.0000
  O3          0.20752      0.29362      0.80770  1.0000
  O2          0.69114      0.90229      0.14141  1.0000
  O3          0.16121      0.85634      0.35371  1.0000
  O3          0.70240      0.82733      0.01995  1.0000
  O2          0.11565      0.28449      0.68526  1.0000
  O3          0.82861      0.11373      0.85578  1.0000
  O3          0.29328      0.15796      0.52189  1.0000
  O3          0.86857      0.69085      0.18793  1.0000
  O1          0.31720      0.60880      0.24593  1.0000
  O1          0.37459      0.68026      0.58226  1.0000
  O1          0.29824      0.66607      0.91409  1.0000
  O1          0.67880      0.36326      0.74784  1.0000
  O1          0.61873      0.28814      0.08039  1.0000
  O1          0.69558      0.30884      0.41339  1.0000
  O3          0.36783      0.33503      0.96058  1.0000
  O1          0.65178      0.02155      0.29329  1.0000
  O1          0.96436      0.60685      0.62707  1.0000
  O1          0.61895      0.64414      0.45868  1.0000
  O1          0.34089      0.95249      0.79255  1.0000
  O1          0.03513      0.37055      0.12588  1.0000
  O1          0.32835      0.33382      0.35279  1.0000
  O1          0.01003      0.65672      0.01868  1.0000
  O1          0.64895      0.96637      0.68665  1.0000
  O1          0.66615      0.63908      0.85339  1.0000
  O1          0.98157      0.31837      0.52052  1.0000
  O1          0.34495      0.00088      0.18553  1.0000
  O1          0.76283      0.30596      0.99984  1.0000
  O1          0.67677      0.43684      0.33285  1.0000
  O1          0.55212      0.21614      0.66682  1.0000
  O1          0.23330      0.67308      0.50050  1.0000
  O1          0.31531      0.53664      0.83467  1.0000
  O3          0.45705      0.76716      0.16717  1.0000
  O1          0.25406      0.71759      0.31476  1.0000
  O1          0.46868      0.72678      0.98206  1.0000
  O3          0.25468      0.50288      0.64826  1.0000
  O1          0.74035      0.25409      0.81545  1.0000
  O1          0.52280      0.24601      0.48134  1.0000
  O1          0.73042      0.46041      0.14836  1.0000
  O1          0.75052      0.53715      0.02659  1.0000
  O1          0.44604      0.19228      0.35988  1.0000
  O1          0.79305      0.22644      0.69385  1.0000
  O1          0.24099      0.43707      0.52679  1.0000
  O1          0.54797      0.78236      0.85885  1.0000
  O1          0.20335      0.74255      0.19132  1.0000
  O1          0.51038      0.76491      0.30756  1.0000
  O3          0.26190      0.46837      0.97459  1.0000
  O1          0.21884      0.72123      0.64321  1.0000
  O1          0.48402      0.20807      0.80962  1.0000
  O1          0.73148      0.50146      0.47594  1.0000
  O1          0.77869      0.25396      0.14273  1.0000
  O3          0.22280      0.34343      0.89841  1.0000
  O3          0.63963      0.85885      0.22525  1.0000
  O1          0.12867      0.76700      0.56176  1.0000
  O1          0.77699      0.63454      0.39411  1.0000
  O1          0.35276      0.11886      0.72743  1.0000
  O1          0.86626      0.21035      0.06112  1.0000
  O1          0.30440      0.20391      0.43371  1.0000
  O1          0.90505      0.67925      0.10020  1.0000
  O1          0.77904      0.07460      0.76785  1.0000
  O1          0.68861      0.77259      0.93352  1.0000
  O3          0.08946      0.30204      0.60234  1.0000
  O1          0.20954      0.89155      0.26603  1.0000
  O1          0.55690      0.56778      0.99547  1.0000
  O1          0.41685      0.96660      0.32718  1.0000
  O3          0.02171      0.42613      0.65885  1.0000
  O1          0.44027      0.41140      0.49409  1.0000
  O1          0.57320      0.00783      0.82854  1.0000
  O1          0.97992      0.54707      0.16130  1.0000
  O1          0.55223      0.57462      0.34566  1.0000
  O1          0.02582      0.43317      0.01128  1.0000
  O1          0.41182      0.95291      0.67896  1.0000
  O1          0.44188      0.40012      0.84587  1.0000
  O1          0.96845      0.54337      0.51119  1.0000
  O3          0.58405      0.01214      0.18032  1.0000
  O1          0.51813      0.12153      0.25314  1.0000
  O1          0.85808      0.37488      0.58630  1.0000
  O1          0.60594      0.46253      0.92130  1.0000
  O1          0.47514      0.84991      0.75445  1.0000
  O1          0.13082      0.60475      0.08626  1.0000
  O1          0.38249      0.50990      0.42006  1.0000
  F           0.39840      0.84269      0.23924  1.0000
  F           0.13887      0.54060      0.57036  1.0000
  F           0.45142      0.58411      0.90503  1.0000
  F           0.59058      0.12761      0.73900  1.0000
  F           0.85422      0.43799      0.07130  1.0000
  F           0.54675      0.39521      0.40478  1.0000
