data_cif

_audit_creation_method             'generated by GULP'

_symmetry_space_group_name_H-M     'P 1'
_symmetry_Int_Tables_number        1
_symmetry_cell_setting             triclinic

_cell_length_a                       12.3738
_cell_length_b                       12.3904
_cell_length_c                       30.1217
_cell_angle_alpha                   89.9595
_cell_angle_beta                    89.9501
_cell_angle_gamma                  119.9500

loop_
_atom_site_label
_atom_site_fract_x
_atom_site_fract_y
_atom_site_fract_z
_atom_site_occupancy
  Ge          0.69960      0.37570      0.03389  1.0000
  Ge          0.67618      0.34069      0.36622  1.0000
  Ge          0.70931      0.34881      0.69906  1.0000
  Ge          0.35418      0.66379      0.53351  1.0000
  Ge          0.38253      0.70465      0.86686  1.0000
  Ge          0.34505      0.69673      0.20061  1.0000
  Ge          0.41541      0.72330      0.29983  1.0000
  Ge          0.34202      0.63362      0.96634  1.0000
  Ge          0.32644      0.70697      0.63273  1.0000
  Ge          0.63936      0.32033      0.79870  1.0000
  Ge          0.71768      0.40964      0.46586  1.0000
  Ge          0.72760      0.33401      0.13352  1.0000
  Ge          0.52965      0.42726      0.96857  1.0000
  Ge          0.62234      0.11772      0.30158  1.0000
  Ge          0.93185      0.51916      0.63405  1.0000
  Ge          0.52884      0.61531      0.46844  1.0000
  Ge          0.43228      0.92610      0.80178  1.0000
  Ge          0.12227      0.52230      0.13557  1.0000
  Ge          0.47271      0.55850      0.36290  1.0000
  Ge          0.12052      0.57823      0.03001  1.0000
  Ge          0.49117      0.92756      0.69622  1.0000
  Ge          0.58615      0.48699      0.86287  1.0000
  Ge          0.94158      0.46531      0.52818  1.0000
  Ge          0.55917      0.10949      0.19569  1.0000
  Ge          0.29798      0.41951      0.85250  1.0000
  Ge          0.63247      0.89318      0.18620  1.0000
  Ge          0.15785      0.75485      0.51887  1.0000
  Ge          0.76052      0.62580      0.35258  1.0000
  Ge          0.42414      0.14787      0.68524  1.0000
  Ge          0.90036      0.29083      0.02001  1.0000
  Ge          0.44357      0.32445      0.48752  1.0000
  Ge          0.91641      0.60764      0.15485  1.0000
  Ge          0.72371      0.13141      0.82084  1.0000
  Ge          0.61565      0.71841      0.98810  1.0000
  Ge          0.13644      0.43305      0.65225  1.0000
  Ge          0.33155      0.91334      0.31974  1.0000
  Ge          0.24420      0.34851      0.95676  1.0000
  Ge          0.69993      0.91025      0.29080  1.0000
  Ge          0.13900      0.80408      0.62346  1.0000
  Ge          0.81426      0.69530      0.45695  1.0000
  Ge          0.35399      0.13259      0.78950  1.0000
  Ge          0.91699      0.23735      0.12437  1.0000
  Ge          0.38972      0.27196      0.38340  1.0000
  Ge          0.91720      0.66175      0.05072  1.0000
  Ge          0.77769      0.13101      0.71669  1.0000
  Ge          0.66934      0.77315      0.88378  1.0000
  Si          0.14007      0.38195      0.54957  1.0000
  Si          0.27745      0.91093      0.21700  1.0000
  Si          0.97262      0.11764      0.96940  1.0000
  Si          0.93249      0.87203      0.30262  1.0000
  Si          0.17805      0.07477      0.63529  1.0000
  Si          0.08512      0.93006      0.46945  1.0000
  Si          0.12367      0.17457      0.80208  1.0000
  Si          0.88077      0.96661      0.13671  1.0000
  Si          0.16451      0.99922      0.36852  1.0000
  Si          0.86839      0.88598      0.03610  1.0000
  Si          0.05134      0.18062      0.70130  1.0000
  Si          0.89184      0.04690      0.86897  1.0000
  Si          0.18965      0.16077      0.53579  1.0000
  Si          0.00655      0.86118      0.20303  1.0000
  O2          0.93239      0.99746      0.00033  1.0000
  O2          0.05170      0.95380      0.33357  1.0000
  O2          0.09754      0.11313      0.66666  1.0000
  O2          0.12018      0.05180      0.49927  1.0000
  O2          0.00383      0.09562      0.83332  1.0000
  O2          0.96727      0.93073      0.16637  1.0000
  O1          0.37946      0.59067      0.33263  1.0000
  O1          0.45862      0.80251      0.66580  1.0000
  O1          0.24530      0.66966      0.99929  1.0000
  O1          0.67638      0.45305      0.83165  1.0000
  O1          0.59206      0.23446      0.16530  1.0000
  O1          0.81710      0.37351      0.49761  1.0000
  O1          0.57948      0.34138      0.99813  1.0000
  O1          0.79486      0.46832      0.66300  1.0000
  O1          0.70948      0.25445      0.33028  1.0000
  O1          0.47370      0.69705      0.49780  1.0000
  O1          0.25935      0.57781      0.16479  1.0000
  O1          0.34725      0.79051      0.83147  1.0000
  O3          0.11721      0.21282      0.97770  1.0000
  O3          0.83595      0.91920      0.31156  1.0000
  O3          0.12928      0.93083      0.64402  1.0000
  O3          0.94149      0.83080      0.47789  1.0000
  O3          0.21832      0.12438      0.81037  1.0000
  O3          0.92532      0.11003      0.14534  1.0000
  O3          0.25763      0.14411      0.36042  1.0000
  O3          0.92222      0.79437      0.02778  1.0000
  O3          0.90595      0.12722      0.69352  1.0000
  O3          0.80157      0.90135      0.86082  1.0000
  O2          0.14092      0.25958      0.52933  1.0000
  O2          0.15419      0.91015      0.19671  1.0000
  O2          0.97872      0.89649      0.25142  1.0000
  O2          0.15385      0.09792      0.58424  1.0000
  O2          0.95026      0.07213      0.91825  1.0000
  O2          0.07719      0.15125      0.75108  1.0000
  O2          0.90255      0.94504      0.08526  1.0000
  O2          0.10783      0.97420      0.41811  1.0000
  O3          0.89569      0.18691      0.97954  1.0000
  O3          0.86503      0.72577      0.31229  1.0000
  O3          0.32463      0.15198      0.64471  1.0000
  O3          0.16532      0.86430      0.48006  1.0000
  O3          0.19412      0.32077      0.81193  1.0000
  O3          0.73483      0.88652      0.14729  1.0000
  O3          0.23620      0.92354      0.36025  1.0000
  O3          0.72035      0.81039      0.02951  1.0000
  O3          0.12607      0.32757      0.69270  1.0000
  O3          0.81526      0.11828      0.86238  1.0000
  O3          0.33666      0.23069      0.52841  1.0000
  O3          0.92977      0.71439      0.19570  1.0000
  O1          0.32899      0.64010      0.25335  1.0000
  O1          0.41028      0.70416      0.58628  1.0000
  O1          0.34575      0.72160      0.92020  1.0000
  O1          0.72670      0.40356      0.75227  1.0000
  O1          0.64496      0.33911      0.08717  1.0000
  O1          0.71315      0.32260      0.41941  1.0000
  O1          0.37281      0.35511      0.98092  1.0000
  O1          0.69574      0.03440      0.31405  1.0000
  O1          0.01444      0.67562      0.64661  1.0000
  O1          0.68540      0.68867      0.48118  1.0000
  O1          0.36054      0.01110      0.81414  1.0000
  O1          0.03939      0.36589      0.14841  1.0000
  O1          0.37713      0.40012      0.37509  1.0000
  O1          0.05799      0.67402      0.04223  1.0000
  O1          0.64969      0.99026      0.70829  1.0000
  O1          0.68209      0.64521      0.87477  1.0000
  O3          0.00922      0.37191      0.53980  1.0000
  O3          0.39800      0.04172      0.20723  1.0000
  O1          0.75576      0.27679      0.01958  1.0000
  O1          0.77491      0.49556      0.35185  1.0000
  O1          0.55434      0.29233      0.68455  1.0000
  O1          0.29997      0.76337      0.51782  1.0000
  O1          0.28410      0.55000      0.85217  1.0000
  O1          0.49908      0.75127      0.18498  1.0000
  O1          0.34326      0.78612      0.33299  1.0000
  O1          0.47444      0.70270      0.00080  1.0000
  O1          0.26325      0.57181      0.66571  1.0000
  O1          0.70837      0.25702      0.83330  1.0000
  O1          0.58481      0.33954      0.50026  1.0000
  O1          0.79047      0.46663      0.16780  1.0000
  O1          0.80274      0.53239      0.02461  1.0000
  O1          0.51923      0.28694      0.35715  1.0000
  O1          0.76344      0.24582      0.69043  1.0000
  O3          0.24889      0.50498      0.52620  1.0000
  O1          0.53963      0.75865      0.85787  1.0000
  O3          0.29170      0.80236      0.19350  1.0000
  O1          0.57732      0.77334      0.30886  1.0000
  O1          0.23013      0.47198      0.97383  1.0000
  O1          0.27586      0.81834      0.64168  1.0000
  O1          0.47761      0.27038      0.80621  1.0000
  O1          0.82777      0.57124      0.47384  1.0000
  O1          0.77943      0.22398      0.14142  1.0000
  O1          0.24227      0.33145      0.89992  1.0000
  O1          0.71824      0.92335      0.23394  1.0000
  O1          0.12671      0.80977      0.56660  1.0000
  O1          0.81614      0.71288      0.40016  1.0000
  O1          0.33634      0.11601      0.73273  1.0000
  O1          0.93232      0.23520      0.06755  1.0000
  O1          0.38693      0.24053      0.43910  1.0000
  O1          0.88869      0.66430      0.10643  1.0000
  O1          0.80831      0.15832      0.77242  1.0000
  O1          0.67273      0.80272      0.93961  1.0000
  O3          0.16186      0.37900      0.60217  1.0000
  O3          0.25254      0.88880      0.26961  1.0000
  O1          0.61270      0.57802      0.98829  1.0000
  O1          0.47204      0.04939      0.32225  1.0000
  O1          0.00003      0.43714      0.65467  1.0000
  O1          0.44668      0.46460      0.48808  1.0000
  O1          0.58338      0.99393      0.82125  1.0000
  O1          0.05359      0.60444      0.15524  1.0000
  O1          0.60935      0.57828      0.33908  1.0000
  O1          0.00397      0.44166      0.00638  1.0000
  O1          0.47203      0.04431      0.67215  1.0000
  O1          0.44929      0.46693      0.83930  1.0000
  O1          0.05299      0.60468      0.50474  1.0000
  O1          0.58732      0.99838      0.17212  1.0000
  O1          0.63552      0.15166      0.24633  1.0000
  O1          0.89832      0.49885      0.57881  1.0000
  O1          0.54849      0.40945      0.91344  1.0000
  O1          0.41332      0.88890      0.74672  1.0000
  O1          0.15910      0.53898      0.08050  1.0000
  O1          0.51194      0.63572      0.41342  1.0000
  F           0.48063      0.87501      0.26271  1.0000
  F           0.17487      0.62055      0.59541  1.0000
  F           0.43316      0.57335      0.92888  1.0000
  F           0.57876      0.16819      0.76151  1.0000
  F           0.88046      0.42583      0.09607  1.0000
  F           0.62567      0.47056      0.42861  1.0000
