data_cif

_audit_creation_method             'generated by GULP'

_symmetry_space_group_name_H-M     'P 1'
_symmetry_Int_Tables_number        1
_symmetry_cell_setting             triclinic

_cell_length_a                       12.3337
_cell_length_b                       12.4247
_cell_length_c                       30.2477
_cell_angle_alpha                   89.9560
_cell_angle_beta                    89.9299
_cell_angle_gamma                  119.9131

loop_
_atom_site_label
_atom_site_fract_x
_atom_site_fract_y
_atom_site_fract_z
_atom_site_occupancy
  Ge          0.69960      0.37570      0.03389  1.0000
  Ge          0.61421      0.30450      0.36604  1.0000
  Ge          0.68664      0.28896      0.70018  1.0000
  Ge          0.29435      0.59984      0.53294  1.0000
  Ge          0.38936      0.67639      0.86512  1.0000
  Ge          0.31862      0.69870      0.19959  1.0000
  Ge          0.35414      0.65978      0.29765  1.0000
  Ge          0.31494      0.63622      0.96411  1.0000
  Ge          0.33120      0.67241      0.63118  1.0000
  Ge          0.64388      0.31569      0.79934  1.0000
  Ge          0.68162      0.34479      0.46528  1.0000
  Ge          0.66953      0.30359      0.13286  1.0000
  Ge          0.53812      0.43408      0.96986  1.0000
  Ge          0.55894      0.08337      0.30298  1.0000
  Ge          0.90682      0.45525      0.63621  1.0000
  Ge          0.45848      0.54106      0.46752  1.0000
  Ge          0.44053      0.89505      0.80096  1.0000
  Ge          0.09709      0.52797      0.13372  1.0000
  Ge          0.40335      0.48823      0.36233  1.0000
  Ge          0.09238      0.58051      0.02847  1.0000
  Ge          0.49984      0.89411      0.69583  1.0000
  Ge          0.59692      0.48859      0.86447  1.0000
  Ge          0.90221      0.39768      0.53124  1.0000
  Ge          0.49901      0.08305      0.19853  1.0000
  Ge          0.30488      0.40304      0.84481  1.0000
  Ge          0.59297      0.88472      0.17896  1.0000
  Ge          0.10864      0.68796      0.51187  1.0000
  Ge          0.69704      0.57503      0.34342  1.0000
  Ge          0.41425      0.09991      0.67725  1.0000
  Ge          0.89091      0.29429      0.01081  1.0000
  Si          0.39948      0.26065      0.47902  1.0000
  Ge          0.87141      0.59435      0.14484  1.0000
  Ge          0.72847      0.11476      0.81262  1.0000
  Ge          0.60185      0.72003      0.97995  1.0000
  Ge          0.12907      0.38731      0.64360  1.0000
  Ge          0.27196      0.86205      0.31147  1.0000
  Ge          0.24863      0.35091      0.94860  1.0000
  Ge          0.64026      0.87864      0.28238  1.0000
  Ge          0.11232      0.74123      0.61574  1.0000
  Ge          0.74790      0.62837      0.44750  1.0000
  Ge          0.35778      0.09852      0.78101  1.0000
  Ge          0.89279      0.24040      0.11583  1.0000
  Ge          0.32838      0.20531      0.37710  1.0000
  Ge          0.88296      0.65987      0.04210  1.0000
  Ge          0.78475      0.10173      0.70883  1.0000
  Ge          0.67526      0.77298      0.87600  1.0000
  Si          0.10753      0.32022      0.54109  1.0000
  Si          0.21770      0.87933      0.21006  1.0000
  Si          0.97472      0.12560      0.96355  1.0000
  Si          0.86396      0.82912      0.29629  1.0000
  Si          0.16032      0.01279      0.63036  1.0000
  Si          0.02057      0.85224      0.46240  1.0000
  Si          0.13600      0.15223      0.79618  1.0000
  Si          0.84773      0.96804      0.12995  1.0000
  Si          0.09621      0.93314      0.36233  1.0000
  Si          0.84802      0.89306      0.02947  1.0000
  Si          0.05726      0.14288      0.69545  1.0000
  Si          0.90415      0.04504      0.86339  1.0000
  Ge          0.15059      0.09182      0.52868  1.0000
  Si          0.94843      0.83896      0.19682  1.0000
  O2          0.92745      0.01128      0.99777  1.0000
  O2          0.98001      0.89728      0.32987  1.0000
  O2          0.09618      0.05862      0.66674  1.0000
  O3          0.06206      0.96831      0.49479  1.0000
  O2          0.02332      0.08793      0.83149  1.0000
  O2          0.92027      0.92342      0.16332  1.0000
  O1          0.31760      0.53664      0.33186  1.0000
  O1          0.45244      0.75951      0.66628  1.0000
  O1          0.22502      0.67093      0.99772  1.0000
  O1          0.68047      0.43569      0.83504  1.0000
  O1          0.54713      0.21643      0.16800  1.0000
  O1          0.76726      0.31047      0.50128  1.0000
  O1          0.56720      0.34041      0.00082  1.0000
  O1          0.78412      0.42275      0.66811  1.0000
  O1          0.65021      0.20754      0.33358  1.0000
  O1          0.42473      0.62829      0.49998  1.0000
  O1          0.22477      0.57231      0.16404  1.0000
  O1          0.35123      0.77009      0.83160  1.0000
  O3          0.11988      0.21992      0.97193  1.0000
  O3          0.77168      0.88123      0.30602  1.0000
  O3          0.10861      0.86837      0.63916  1.0000
  O3          0.87527      0.75885      0.47101  1.0000
  O3          0.22469      0.09447      0.80360  1.0000
  O3          0.90201      0.11358      0.13698  1.0000
  O3          0.19131      0.07863      0.35773  1.0000
  O3          0.89499      0.79602      0.02060  1.0000
  O3          0.91270      0.09532      0.68713  1.0000
  O3          0.81226      0.89987      0.85581  1.0000
  O3          0.09625      0.19412      0.52178  1.0000
  O2          0.09621      0.88508      0.19209  1.0000
  O2          0.91731      0.86264      0.24630  1.0000
  O3          0.12348      0.03551      0.58193  1.0000
  O2          0.95300      0.07081      0.91394  1.0000
  O2          0.07839      0.12478      0.74699  1.0000
  O2          0.87457      0.94169      0.07995  1.0000
  O2          0.04415      0.90275      0.41227  1.0000
  O3          0.89817      0.19714      0.97059  1.0000
  O3          0.79149      0.68176      0.30292  1.0000
  O3          0.30935      0.08700      0.63590  1.0000
  O3          0.09824      0.78275      0.47135  1.0000
  O3          0.21375      0.29910      0.80344  1.0000
  O3          0.70038      0.89674      0.13859  1.0000
  O3          0.16634      0.85788      0.35096  1.0000
  O3          0.70098      0.82522      0.02004  1.0000
  O3          0.13635      0.28661      0.68238  1.0000
  O3          0.82999      0.11735      0.85365  1.0000
  O3          0.30869      0.16871      0.51748  1.0000
  O3          0.86983      0.69507      0.18543  1.0000
  O1          0.31721      0.60825      0.24428  1.0000
  O1          0.38444      0.68775      0.57804  1.0000
  O1          0.30213      0.67516      0.91095  1.0000
  O1          0.68098      0.37082      0.74637  1.0000
  O1          0.61302      0.31690      0.08294  1.0000
  O1          0.69891      0.30524      0.41283  1.0000
  O1          0.37814      0.34124      0.95819  1.0000
  O1          0.65386      0.01913      0.29172  1.0000
  O1          0.97161      0.61353      0.62516  1.0000
  O1          0.61795      0.63779      0.45695  1.0000
  O1          0.34429      0.95769      0.78960  1.0000
  O1          0.00202      0.36887      0.14265  1.0000
  O1          0.32960      0.33066      0.35293  1.0000
  O1          0.02721      0.67481      0.03317  1.0000
  O1          0.65740      0.98029      0.68421  1.0000
  O1          0.67035      0.64497      0.85245  1.0000
  O3          0.99226      0.32888      0.52017  1.0000
  O3          0.33984      0.99163      0.18688  1.0000
  O1          0.74607      0.27956      0.00719  1.0000
  O1          0.68673      0.43632      0.33137  1.0000
  O1          0.55530      0.22602      0.66520  1.0000
  O1          0.23460      0.67256      0.49870  1.0000
  O1          0.32036      0.54330      0.83165  1.0000
  O1          0.45118      0.76198      0.16502  1.0000
  O1          0.25688      0.71800      0.31273  1.0000
  O1          0.46928      0.73110      0.98051  1.0000
  O1          0.27319      0.51771      0.64569  1.0000
  O1          0.74236      0.25863      0.81361  1.0000
  O3          0.52311      0.24899      0.47917  1.0000
  O1          0.75472      0.44805      0.15818  1.0000
  O1          0.76536      0.53457      0.01605  1.0000
  O1          0.45160      0.19250      0.35885  1.0000
  O1          0.79883      0.23943      0.69265  1.0000
  O3          0.23733      0.43609      0.52562  1.0000
  O1          0.55143      0.78605      0.85793  1.0000
  O3          0.20658      0.75046      0.19626  1.0000
  O1          0.51127      0.76111      0.30780  1.0000
  O1          0.25735      0.47907      0.97355  1.0000
  O1          0.22956      0.72838      0.64081  1.0000
  O1          0.48633      0.21250      0.80769  1.0000
  O1          0.73791      0.50096      0.47344  1.0000
  O1          0.74881      0.22181      0.12738  1.0000
  O1          0.21960      0.34569      0.89288  1.0000
  O1          0.64982      0.85529      0.22684  1.0000
  O1          0.13503      0.77265      0.55995  1.0000
  O1          0.77903      0.63466      0.39197  1.0000
  O1          0.35551      0.12580      0.72550  1.0000
  O1          0.91911      0.24229      0.05997  1.0000
  O3          0.31687      0.20676      0.43460  1.0000
  O1          0.84512      0.65379      0.09738  1.0000
  O1          0.78580      0.08425      0.76537  1.0000
  O1          0.68990      0.77596      0.93265  1.0000
  O3          0.09731      0.30526      0.59450  1.0000
  O3          0.22135      0.89786      0.26306  1.0000
  O1          0.56025      0.57099      0.99369  1.0000
  O1          0.42138      0.96671      0.32619  1.0000
  O1          0.02285      0.43060      0.65807  1.0000
  O3          0.43968      0.40217      0.48916  1.0000
  O1          0.57660      0.01052      0.82512  1.0000
  O1          0.01247      0.60189      0.14388  1.0000
  O1          0.55385      0.56781      0.34163  1.0000
  O1          0.00088      0.44603      0.99878  1.0000
  O1          0.41752      0.96299      0.67642  1.0000
  O1          0.44598      0.40635      0.84462  1.0000
  O1          0.97092      0.54763      0.51134  1.0000
  O1          0.58831      0.02088      0.17997  1.0000
  O1          0.52120      0.12437      0.25279  1.0000
  O1          0.86178      0.37984      0.58559  1.0000
  O1          0.61447      0.46944      0.91931  1.0000
  O1          0.47934      0.85636      0.75064  1.0000
  O1          0.13540      0.54763      0.07790  1.0000
  O1          0.38554      0.51287      0.41677  1.0000
  F           0.41584      0.84410      0.23868  1.0000
  F           0.14768      0.54973      0.57116  1.0000
  F           0.44868      0.58480      0.90383  1.0000
  F           0.59434      0.13622      0.73689  1.0000
  F           0.85043      0.43724      0.07089  1.0000
  F           0.55522      0.39770      0.40157  1.0000
