data_cif

_audit_creation_method             'generated by GULP'

_symmetry_space_group_name_H-M     'P 1'
_symmetry_Int_Tables_number        1
_symmetry_cell_setting             triclinic

_cell_length_a                       12.4136
_cell_length_b                       12.4309
_cell_length_c                       30.2408
_cell_angle_alpha                   89.8665
_cell_angle_beta                    89.9835
_cell_angle_gamma                  120.0710

loop_
_atom_site_label
_atom_site_fract_x
_atom_site_fract_y
_atom_site_fract_z
_atom_site_occupancy
  Ge          0.69960      0.37570      0.03389  1.0000
  Ge          0.65889      0.33950      0.36942  1.0000
  Ge          0.69406      0.34152      0.70136  1.0000
  Ge          0.33911      0.66267      0.53584  1.0000
  Ge          0.37361      0.69871      0.86813  1.0000
  Ge          0.34189      0.70243      0.20259  1.0000
  Ge          0.40845      0.72871      0.30192  1.0000
  Ge          0.33193      0.62460      0.96703  1.0000
  Ge          0.30853      0.70223      0.63497  1.0000
  Ge          0.62385      0.31291      0.80058  1.0000
  Ge          0.69878      0.40885      0.46865  1.0000
  Ge          0.72358      0.33831      0.13390  1.0000
  Ge          0.52344      0.42051      0.96973  1.0000
  Ge          0.61284      0.12101      0.30425  1.0000
  Ge          0.91619      0.51523      0.63716  1.0000
  Ge          0.51166      0.61409      0.47135  1.0000
  Ge          0.41813      0.91914      0.80351  1.0000
  Ge          0.12268      0.53342      0.13702  1.0000
  Ge          0.45516      0.55597      0.36593  1.0000
  Ge          0.11338      0.57795      0.03139  1.0000
  Ge          0.47664      0.92210      0.69825  1.0000
  Ge          0.57766      0.48414      0.86433  1.0000
  Ge          0.91941      0.46025      0.53180  1.0000
  Ge          0.55603      0.11897      0.19909  1.0000
  Ge          0.28973      0.41422      0.85419  1.0000
  Si          0.62059      0.90092      0.18797  1.0000
  Ge          0.13903      0.74738      0.52168  1.0000
  Ge          0.74242      0.62413      0.35562  1.0000
  Ge          0.40914      0.14126      0.68773  1.0000
  Si          0.89809      0.29459      0.02171  1.0000
  Ge          0.42539      0.32336      0.49025  1.0000
  Ge          0.91105      0.61062      0.15497  1.0000
  Ge          0.70846      0.12502      0.82229  1.0000
  Ge          0.60389      0.70953      0.98950  1.0000
  Ge          0.12045      0.42887      0.65652  1.0000
  Ge          0.32236      0.91456      0.32391  1.0000
  Ge          0.23813      0.34102      0.95809  1.0000
  Ge          0.69193      0.91598      0.28970  1.0000
  Ge          0.12148      0.79997      0.62558  1.0000
  Ge          0.79663      0.69363      0.45939  1.0000
  Ge          0.33900      0.12431      0.79163  1.0000
  Ge          0.91608      0.24991      0.12459  1.0000
  Ge          0.37206      0.27021      0.38610  1.0000
  Ge          0.91163      0.66345      0.05079  1.0000
  Ge          0.76300      0.12486      0.71853  1.0000
  Ge          0.66002      0.76886      0.88563  1.0000
  Ge          0.12147      0.37617      0.55251  1.0000
  Ge          0.26983      0.91576      0.21977  1.0000
  Si          0.96547      0.11892      0.97191  1.0000
  Si          0.92000      0.87008      0.30484  1.0000
  Si          0.16336      0.07136      0.63818  1.0000
  Si          0.06917      0.92303      0.47184  1.0000
  Si          0.11151      0.16910      0.80471  1.0000
  Ge          0.86735      0.97135      0.13823  1.0000
  Si          0.15090      0.99610      0.37170  1.0000
  Si          0.85612      0.88159      0.03638  1.0000
  Si          0.03704      0.17657      0.70473  1.0000
  Si          0.87917      0.04562      0.87157  1.0000
  Si          0.17276      0.15411      0.53825  1.0000
  Si          0.99546      0.85947      0.20529  1.0000
  O2          0.91486      0.99569      0.00149  1.0000
  O2          0.03568      0.94685      0.33772  1.0000
  O2          0.08640      0.11270      0.66994  1.0000
  O2          0.10943      0.04167      0.50320  1.0000
  O2          0.99333      0.09516      0.83699  1.0000
  O3          0.94839      0.92837      0.17259  1.0000
  O1          0.36986      0.59566      0.33481  1.0000
  O1          0.44145      0.79756      0.66764  1.0000
  O1          0.23345      0.66153      0.99818  1.0000
  O1          0.66396      0.44725      0.83264  1.0000
  O1          0.59023      0.23962      0.16631  1.0000
  O1          0.79452      0.37128      0.50114  1.0000
  O1          0.57959      0.33768      0.99785  1.0000
  O1          0.77949      0.46271      0.66609  1.0000
  O1          0.69615      0.25503      0.33452  1.0000
  O1          0.46042      0.69838      0.50065  1.0000
  O1          0.25891      0.58406      0.16631  1.0000
  O1          0.33615      0.78310      0.83306  1.0000
  O3          0.11181      0.20233      0.97802  1.0000
  O3          0.82949      0.92649      0.30862  1.0000
  O3          0.11198      0.92648      0.64596  1.0000
  O3          0.92414      0.82907      0.47970  1.0000
  O3          0.20284      0.11501      0.81218  1.0000
  O1          0.93147      0.12738      0.14355  1.0000
  O3          0.24086      0.14164      0.36327  1.0000
  O3          0.91361      0.79347      0.02706  1.0000
  O3          0.89162      0.12095      0.69621  1.0000
  O3          0.79278      0.89942      0.86420  1.0000
  O3          0.11785      0.24440      0.52988  1.0000
  O3          0.14089      0.91535      0.19635  1.0000
  O2          0.97389      0.88927      0.25526  1.0000
  O2          0.13975      0.09648      0.58754  1.0000
  O2          0.93409      0.07669      0.92108  1.0000
  O2          0.06174      0.14521      0.75423  1.0000
  O3          0.89047      0.93732      0.08512  1.0000
  O2          0.09479      0.97132      0.42119  1.0000
  O2          0.90105      0.20074      0.98463  1.0000
  O3          0.84441      0.72465      0.31519  1.0000
  O3          0.30967      0.14546      0.64746  1.0000
  O3          0.14386      0.85177      0.48154  1.0000
  O3          0.18665      0.31539      0.81372  1.0000
  O3          0.70961      0.90052      0.14894  1.0000
  O3          0.22771      0.92585      0.36452  1.0000
  O3          0.70820      0.80153      0.03073  1.0000
  O3          0.10794      0.32388      0.69760  1.0000
  O3          0.80023      0.11308      0.86363  1.0000
  O3          0.32037      0.23049      0.53135  1.0000
  O3          0.92129      0.71304      0.19662  1.0000
  O1          0.32481      0.64548      0.25512  1.0000
  O1          0.39257      0.69897      0.58892  1.0000
  O1          0.33706      0.71400      0.92135  1.0000
  O1          0.71132      0.39549      0.75433  1.0000
  O1          0.64169      0.33639      0.08649  1.0000
  O1          0.69500      0.32207      0.42254  1.0000
  O1          0.36641      0.34592      0.98180  1.0000
  O1          0.68896      0.03918      0.31382  1.0000
  O1          0.99977      0.67132      0.64973  1.0000
  O1          0.66822      0.68683      0.48357  1.0000
  O1          0.34537      0.00260      0.81593  1.0000
  O1          0.03861      0.37692      0.14861  1.0000
  O1          0.35854      0.39754      0.37677  1.0000
  O1          0.05109      0.67438      0.04123  1.0000
  O1          0.63503      0.98442      0.70978  1.0000
  O1          0.67392      0.64221      0.87569  1.0000
  O1          0.98131      0.36395      0.54322  1.0000
  O1          0.39733      0.05579      0.20969  1.0000
  O3          0.76237      0.28043      0.02068  1.0000
  O1          0.75687      0.49449      0.35494  1.0000
  O1          0.53941      0.28525      0.68687  1.0000
  O1          0.28302      0.76095      0.52119  1.0000
  O1          0.27547      0.54399      0.85377  1.0000
  O3          0.49960      0.76520      0.18886  1.0000
  O1          0.33566      0.78806      0.33638  1.0000
  O1          0.46277      0.69316      0.00198  1.0000
  O1          0.24552      0.56952      0.66914  1.0000
  O1          0.69239      0.24952      0.83492  1.0000
  O1          0.56604      0.33866      0.50282  1.0000
  O1          0.78291      0.47142      0.16760  1.0000
  O1          0.79639      0.53311      0.02555  1.0000
  O1          0.50225      0.28608      0.36038  1.0000
  O1          0.74813      0.23908      0.69240  1.0000
  O1          0.23656      0.50608      0.52685  1.0000
  O1          0.53093      0.75422      0.85951  1.0000
  O1          0.28333      0.80044      0.19408  1.0000
  O1          0.57042      0.78003      0.30830  1.0000
  O1          0.22334      0.46310      0.97540  1.0000
  O1          0.25858      0.81348      0.64255  1.0000
  O1          0.46249      0.26192      0.80833  1.0000
  O1          0.81018      0.57007      0.47623  1.0000
  O1          0.77804      0.23176      0.14250  1.0000
  O1          0.23576      0.32567      0.90138  1.0000
  O3          0.70413      0.93106      0.23223  1.0000
  O1          0.10647      0.80210      0.56896  1.0000
  O1          0.79793      0.71149      0.40280  1.0000
  O1          0.32148      0.10892      0.73506  1.0000
  O3          0.92769      0.24724      0.06716  1.0000
  O1          0.36839      0.24091      0.44173  1.0000
  O1          0.88790      0.67081      0.10654  1.0000
  O1          0.79276      0.15198      0.77407  1.0000
  O1          0.66182      0.79454      0.94140  1.0000
  O1          0.14704      0.37224      0.60813  1.0000
  O1          0.24025      0.89170      0.27543  1.0000
  O1          0.60214      0.57012      0.99014  1.0000
  O1          0.46354      0.05101      0.32546  1.0000
  O1          0.98343      0.43206      0.65692  1.0000
  O1          0.42873      0.46344      0.49100  1.0000
  O1          0.56899      0.98726      0.82283  1.0000
  O1          0.05007      0.61114      0.15668  1.0000
  O1          0.59164      0.57660      0.34237  1.0000
  O3          0.99516      0.43686      0.01025  1.0000
  O1          0.45642      0.03801      0.67447  1.0000
  O1          0.44109      0.46372      0.84095  1.0000
  O1          0.03574      0.59687      0.50818  1.0000
  O3          0.57741      0.00012      0.17777  1.0000
  O1          0.62911      0.16355      0.24983  1.0000
  O1          0.88066      0.49800      0.58221  1.0000
  O1          0.54195      0.40626      0.91463  1.0000
  O1          0.39929      0.88284      0.74865  1.0000
  O1          0.16088      0.55328      0.08227  1.0000
  O1          0.49233      0.63169      0.41647  1.0000
  F           0.46514      0.88123      0.26596  1.0000
  F           0.15744      0.61173      0.59768  1.0000
  F           0.42457      0.56651      0.92998  1.0000
  F           0.56297      0.16054      0.76339  1.0000
  F           0.87777      0.43550      0.09796  1.0000
  F           0.60784      0.46975      0.43151  1.0000
