data_cif

_audit_creation_method             'generated by GULP'

_symmetry_space_group_name_H-M     'P 1'
_symmetry_Int_Tables_number        1
_symmetry_cell_setting             triclinic

_cell_length_a                       12.3898
_cell_length_b                       12.3671
_cell_length_c                       30.2406
_cell_angle_alpha                   90.0187
_cell_angle_beta                    89.9348
_cell_angle_gamma                  119.9554

loop_
_atom_site_label
_atom_site_fract_x
_atom_site_fract_y
_atom_site_fract_z
_atom_site_occupancy
  Ge          0.69960      0.37570      0.03389  1.0000
  Ge          0.67436      0.33710      0.36703  1.0000
  Ge          0.71213      0.34937      0.70032  1.0000
  Ge          0.35624      0.66554      0.53399  1.0000
  Ge          0.38159      0.70675      0.86817  1.0000
  Ge          0.34255      0.69367      0.20069  1.0000
  Ge          0.41398      0.72093      0.29945  1.0000
  Ge          0.34142      0.63399      0.96718  1.0000
  Ge          0.32448      0.70472      0.63271  1.0000
  Ge          0.64078      0.32130      0.79921  1.0000
  Ge          0.71529      0.40844      0.46613  1.0000
  Ge          0.72705      0.33406      0.13279  1.0000
  Ge          0.52934      0.42684      0.96914  1.0000
  Ge          0.61881      0.11556      0.30238  1.0000
  Ge          0.93199      0.51836      0.63401  1.0000
  Ge          0.52802      0.61636      0.46912  1.0000
  Ge          0.43632      0.92813      0.80375  1.0000
  Ge          0.12007      0.52178      0.13519  1.0000
  Ge          0.47134      0.55911      0.36370  1.0000
  Ge          0.11992      0.57851      0.03042  1.0000
  Ge          0.49069      0.92428      0.69851  1.0000
  Ge          0.58542      0.48507      0.86360  1.0000
  Ge          0.93584      0.46279      0.52930  1.0000
  Ge          0.55813      0.11240      0.19730  1.0000
  Ge          0.29836      0.42040      0.85297  1.0000
  Ge          0.63316      0.89210      0.18741  1.0000
  Ge          0.15537      0.74924      0.51863  1.0000
  Ge          0.75811      0.62346      0.35249  1.0000
  Ge          0.42158      0.14672      0.68779  1.0000
  Ge          0.90059      0.29164      0.01971  1.0000
  Ge          0.44179      0.32407      0.48773  1.0000
  Ge          0.91625      0.60875      0.15396  1.0000
  Ge          0.72217      0.12996      0.82217  1.0000
  Ge          0.61532      0.71882      0.98838  1.0000
  Ge          0.13440      0.42995      0.65322  1.0000
  Ge          0.33186      0.91261      0.31969  1.0000
  Ge          0.24399      0.34836      0.95692  1.0000
  Ge          0.69756      0.90570      0.29054  1.0000
  Ge          0.13833      0.80363      0.62194  1.0000
  Ge          0.81307      0.69432      0.45642  1.0000
  Ge          0.35651      0.13654      0.79043  1.0000
  Ge          0.91532      0.23647      0.12328  1.0000
  Ge          0.38853      0.27044      0.38382  1.0000
  Ge          0.91626      0.66157      0.05065  1.0000
  Ge          0.77800      0.13036      0.71753  1.0000
  Ge          0.66787      0.77359      0.88432  1.0000
  Ge          0.13889      0.37936      0.55001  1.0000
  Si          0.27586      0.90902      0.21677  1.0000
  Si          0.97204      0.11748      0.96939  1.0000
  Si          0.93013      0.87004      0.30289  1.0000
  Si          0.17796      0.07457      0.63564  1.0000
  Si          0.08560      0.92465      0.46859  1.0000
  Si          0.12517      0.17431      0.80317  1.0000
  Si          0.88053      0.96659      0.13664  1.0000
  Si          0.16353      0.99706      0.36809  1.0000
  Si          0.86789      0.88594      0.03620  1.0000
  Si          0.05156      0.17865      0.70283  1.0000
  Si          0.89205      0.04747      0.86922  1.0000
  Si          0.18907      0.15629      0.53543  1.0000
  Si          0.00468      0.86094      0.20340  1.0000
  O2          0.93199      0.99866      0.00101  1.0000
  O2          0.04882      0.95103      0.33413  1.0000
  O2          0.09757      0.11185      0.66772  1.0000
  O2          0.12594      0.04314      0.50041  1.0000
  O2          0.00561      0.09589      0.83446  1.0000
  O2          0.96699      0.93268      0.16719  1.0000
  O1          0.37791      0.58964      0.33299  1.0000
  O1          0.45225      0.79735      0.66847  1.0000
  O1          0.24543      0.67032      0.00024  1.0000
  O1          0.67743      0.45335      0.83257  1.0000
  O1          0.59393      0.23654      0.16612  1.0000
  O1          0.81106      0.37129      0.49880  1.0000
  O1          0.57876      0.34065      0.99854  1.0000
  O1          0.79635      0.46777      0.66373  1.0000
  O1          0.70887      0.24886      0.33259  1.0000
  O1          0.47851      0.70171      0.49909  1.0000
  O1          0.25582      0.57496      0.16495  1.0000
  O1          0.34609      0.79496      0.83412  1.0000
  O3          0.11687      0.21217      0.97732  1.0000
  O3          0.83410      0.91783      0.31208  1.0000
  O3          0.12607      0.92875      0.64270  1.0000
  O3          0.94072      0.83026      0.47664  1.0000
  O3          0.22033      0.12503      0.81214  1.0000
  O3          0.92717      0.11122      0.14432  1.0000
  O3          0.25759      0.14212      0.36029  1.0000
  O3          0.92143      0.79427      0.02745  1.0000
  O3          0.90509      0.12186      0.69614  1.0000
  O3          0.79873      0.90233      0.86089  1.0000
  O3          0.13441      0.24694      0.52668  1.0000
  O2          0.15244      0.90990      0.19796  1.0000
  O2          0.97718      0.89476      0.25199  1.0000
  O2          0.15595      0.10021      0.58496  1.0000
  O2          0.94831      0.06974      0.91866  1.0000
  O2          0.07835      0.14930      0.75238  1.0000
  O2          0.90163      0.94282      0.08558  1.0000
  O2          0.10982      0.97305      0.41795  1.0000
  O3          0.89613      0.18802      0.97916  1.0000
  O3          0.86273      0.72340      0.31231  1.0000
  O3          0.32339      0.14976      0.64644  1.0000
  O3          0.16109      0.85351      0.47809  1.0000
  O3          0.19411      0.32098      0.81265  1.0000
  O3          0.73520      0.88811      0.14771  1.0000
  O3          0.23386      0.92010      0.35937  1.0000
  O3          0.72001      0.81117      0.02958  1.0000
  O3          0.12193      0.32587      0.69482  1.0000
  O3          0.81895      0.12261      0.86263  1.0000
  O3          0.33695      0.23173      0.52895  1.0000
  O3          0.92818      0.71444      0.19506  1.0000
  O1          0.35250      0.63503      0.25058  1.0000
  O1          0.41021      0.70138      0.58731  1.0000
  O1          0.34272      0.72062      0.92124  1.0000
  O1          0.69744      0.40690      0.74993  1.0000
  O1          0.64394      0.33913      0.08697  1.0000
  O1          0.71307      0.32200      0.41997  1.0000
  O1          0.37228      0.35403      0.98069  1.0000
  O1          0.71253      0.04934      0.29984  1.0000
  O1          0.02032      0.67400      0.64754  1.0000
  O1          0.68507      0.68876      0.48057  1.0000
  O1          0.34113      0.99248      0.79917  1.0000
  O1          0.03419      0.36588      0.14852  1.0000
  O1          0.37767      0.39935      0.37496  1.0000
  O1          0.05727      0.67443      0.04248  1.0000
  O1          0.64948      0.02418      0.68967  1.0000
  O1          0.67871      0.64495      0.87461  1.0000
  O1          0.99810      0.36657      0.54139  1.0000
  O3          0.39601      0.01331      0.19172  1.0000
  O1          0.75571      0.27679      0.01941  1.0000
  O1          0.77000      0.49170      0.35128  1.0000
  O1          0.56857      0.26186      0.67454  1.0000
  O1          0.30032      0.76426      0.51904  1.0000
  O1          0.28670      0.55229      0.85208  1.0000
  O1          0.48730      0.77262      0.17527  1.0000
  O1          0.31928      0.76987      0.32574  1.0000
  O1          0.47454      0.70391      0.00094  1.0000
  O1          0.25682      0.57207      0.66699  1.0000
  O1          0.73717      0.27460      0.82561  1.0000
  O1          0.58241      0.33863      0.50011  1.0000
  O1          0.79233      0.46649      0.16723  1.0000
  O1          0.80170      0.53262      0.02430  1.0000
  O1          0.51683      0.28069      0.35810  1.0000
  O1          0.79823      0.27517      0.70749  1.0000
  O1          0.25484      0.50861      0.52417  1.0000
  O1          0.53937      0.76419      0.85909  1.0000
  O3          0.26220      0.77566      0.20683  1.0000
  O1          0.57369      0.78590      0.31667  1.0000
  O1          0.23078      0.47215      0.97452  1.0000
  O1          0.27744      0.81815      0.63649  1.0000
  O1          0.48155      0.25452      0.81667  1.0000
  O1          0.82622      0.57023      0.47365  1.0000
  O1          0.77671      0.22291      0.13817  1.0000
  O1          0.24164      0.33291      0.90025  1.0000
  O1          0.69668      0.87275      0.23505  1.0000
  O1          0.11889      0.80298      0.56549  1.0000
  O1          0.81485      0.71054      0.39982  1.0000
  O1          0.36138      0.17318      0.73509  1.0000
  O1          0.93433      0.23652      0.06679  1.0000
  O1          0.38384      0.24030      0.43942  1.0000
  O1          0.88633      0.66494      0.10601  1.0000
  O1          0.77419      0.10062      0.77317  1.0000
  O1          0.67317      0.80258      0.94004  1.0000
  O1          0.16637      0.37431      0.60547  1.0000
  O3          0.28031      0.93605      0.26909  1.0000
  O1          0.61111      0.57763      0.98904  1.0000
  O1          0.48221      0.02625      0.33153  1.0000
  O1          0.99524      0.42880      0.65108  1.0000
  O1          0.44598      0.46521      0.48863  1.0000
  O1          0.56994      0.01998      0.83402  1.0000
  O1          0.05462      0.60863      0.15289  1.0000
  O1          0.60805      0.58093      0.33939  1.0000
  O1          0.00382      0.44275      0.00610  1.0000
  O1          0.41187      0.00482      0.68878  1.0000
  O1          0.44817      0.46243      0.83959  1.0000
  O1          0.05275      0.59811      0.50494  1.0000
  O1          0.63280      0.02910      0.18523  1.0000
  O1          0.59018      0.15777      0.25211  1.0000
  O1          0.89585      0.50361      0.57905  1.0000
  O1          0.55041      0.41025      0.91430  1.0000
  O1          0.47063      0.88607      0.75438  1.0000
  O1          0.15806      0.53737      0.08040  1.0000
  O1          0.50714      0.63420      0.41437  1.0000
  F           0.47962      0.87192      0.26195  1.0000
  F           0.17358      0.61057      0.59374  1.0000
  F           0.43317      0.57457      0.92901  1.0000
  F           0.57921      0.16974      0.76180  1.0000
  F           0.88005      0.42891      0.09459  1.0000
  F           0.62375      0.46883      0.42841  1.0000
