data_cif

_audit_creation_method             'generated by GULP'

_symmetry_space_group_name_H-M     'P 1'
_symmetry_Int_Tables_number        1
_symmetry_cell_setting             triclinic

_cell_length_a                       12.4096
_cell_length_b                       12.3716
_cell_length_c                       30.1923
_cell_angle_alpha                   89.9062
_cell_angle_beta                    89.9840
_cell_angle_gamma                  120.0269

loop_
_atom_site_label
_atom_site_fract_x
_atom_site_fract_y
_atom_site_fract_z
_atom_site_occupancy
  Ge          0.69960      0.37570      0.03389  1.0000
  Ge          0.66574      0.33714      0.36688  1.0000
  Ge          0.70935      0.34794      0.69980  1.0000
  Ge          0.35325      0.66553      0.53350  1.0000
  Ge          0.37956      0.70560      0.86857  1.0000
  Ge          0.34257      0.69021      0.20186  1.0000
  Ge          0.41326      0.72077      0.30112  1.0000
  Ge          0.33991      0.63154      0.96778  1.0000
  Ge          0.32085      0.70415      0.63241  1.0000
  Ge          0.63841      0.32023      0.79890  1.0000
  Ge          0.71049      0.40531      0.46598  1.0000
  Ge          0.72632      0.33330      0.13326  1.0000
  Ge          0.52830      0.42510      0.96873  1.0000
  Ge          0.61764      0.11499      0.30165  1.0000
  Ge          0.92878      0.51738      0.63328  1.0000
  Ge          0.52460      0.61416      0.46932  1.0000
  Ge          0.43381      0.92736      0.80410  1.0000
  Ge          0.12016      0.52019      0.13737  1.0000
  Ge          0.46878      0.55247      0.36366  1.0000
  Ge          0.12026      0.57891      0.03195  1.0000
  Ge          0.48731      0.92287      0.69864  1.0000
  Ge          0.58336      0.48421      0.86305  1.0000
  Ge          0.93226      0.46214      0.52835  1.0000
  Ge          0.55929      0.11099      0.19632  1.0000
  Ge          0.29670      0.41960      0.85285  1.0000
  Ge          0.62729      0.89079      0.18703  1.0000
  Ge          0.15240      0.74862      0.51804  1.0000
  Ge          0.75760      0.62536      0.35342  1.0000
  Ge          0.41860      0.14542      0.68771  1.0000
  Ge          0.90043      0.29114      0.02043  1.0000
  Ge          0.43770      0.32232      0.48650  1.0000
  Ge          0.91480      0.60639      0.15589  1.0000
  Ge          0.71977      0.12922      0.82221  1.0000
  Ge          0.61388      0.71645      0.98831  1.0000
  Ge          0.13071      0.42906      0.65284  1.0000
  Ge          0.32738      0.90964      0.32158  1.0000
  Ge          0.24327      0.34636      0.95694  1.0000
  Ge          0.69840      0.91003      0.29113  1.0000
  Ge          0.13505      0.80291      0.62149  1.0000
  Ge          0.80878      0.69082      0.45782  1.0000
  Ge          0.35410      0.13574      0.79057  1.0000
  Ge          0.91352      0.23520      0.12451  1.0000
  Si          0.38483      0.26984      0.38403  1.0000
  Ge          0.91703      0.66209      0.05180  1.0000
  Ge          0.77495      0.12884      0.71737  1.0000
  Ge          0.66573      0.77257      0.88418  1.0000
  Ge          0.13549      0.37932      0.54947  1.0000
  Ge          0.27315      0.90791      0.21763  1.0000
  Si          0.97105      0.11662      0.96957  1.0000
  Si          0.93271      0.87401      0.30382  1.0000
  Si          0.17513      0.07414      0.63549  1.0000
  Si          0.07981      0.92263      0.46921  1.0000
  Si          0.12299      0.17364      0.80313  1.0000
  Si          0.87273      0.96316      0.13693  1.0000
  Si          0.16362      0.99930      0.36993  1.0000
  Si          0.86587      0.88473      0.03656  1.0000
  Si          0.04839      0.17754      0.70270  1.0000
  Si          0.88984      0.04698      0.86924  1.0000
  Si          0.18488      0.15549      0.53493  1.0000
  Si          0.00032      0.85933      0.20353  1.0000
  O2          0.92975      0.99707      0.00107  1.0000
  O2          0.05455      0.96021      0.33357  1.0000
  O2          0.09473      0.11079      0.66776  1.0000
  O2          0.11811      0.04061      0.50089  1.0000
  O2          0.00362      0.09549      0.83458  1.0000
  O2          0.95276      0.92310      0.16774  1.0000
  O1          0.37719      0.58628      0.33353  1.0000
  O1          0.44825      0.79610      0.66849  1.0000
  O1          0.24572      0.66873      0.00143  1.0000
  O1          0.67531      0.45292      0.83196  1.0000
  O1          0.59250      0.23560      0.16542  1.0000
  O1          0.80736      0.36853      0.49808  1.0000
  O1          0.57971      0.34034      0.99807  1.0000
  O1          0.79302      0.46617      0.66300  1.0000
  O1          0.69886      0.25267      0.33045  1.0000
  O1          0.47513      0.70057      0.49858  1.0000
  O1          0.25501      0.56854      0.16695  1.0000
  O1          0.34389      0.79435      0.83480  1.0000
  O3          0.11624      0.20970      0.97730  1.0000
  O3          0.83452      0.91965      0.31194  1.0000
  O3          0.12284      0.92805      0.64217  1.0000
  O3          0.93638      0.82645      0.47831  1.0000
  O3          0.21798      0.12432      0.81214  1.0000
  O3          0.92101      0.10756      0.14553  1.0000
  O2          0.26209      0.14717      0.36374  1.0000
  O3          0.92169      0.79468      0.02875  1.0000
  O3          0.90188      0.12016      0.69611  1.0000
  O3          0.79648      0.90182      0.86084  1.0000
  O3          0.13230      0.24759      0.52616  1.0000
  O3          0.14518      0.91198      0.19484  1.0000
  O2          0.97689      0.89498      0.25256  1.0000
  O2          0.15421      0.10215      0.58494  1.0000
  O2          0.94589      0.06915      0.91878  1.0000
  O2          0.07567      0.14861      0.75235  1.0000
  O2          0.89719      0.94251      0.08583  1.0000
  O2          0.10113      0.97100      0.41834  1.0000
  O3          0.89718      0.18883      0.97965  1.0000
  O3          0.86609      0.72799      0.31453  1.0000
  O3          0.32040      0.14875      0.64643  1.0000
  O3          0.15802      0.85394      0.47783  1.0000
  O3          0.19225      0.32040      0.81254  1.0000
  O3          0.72666      0.88545      0.14683  1.0000
  O3          0.23379      0.92276      0.36226  1.0000
  O3          0.71841      0.80798      0.02964  1.0000
  O3          0.11810      0.32472      0.69454  1.0000
  O3          0.81693      0.12213      0.86263  1.0000
  O3          0.33196      0.22666      0.52678  1.0000
  O3          0.92696      0.71101      0.19721  1.0000
  O1          0.32574      0.63670      0.25511  1.0000
  O1          0.40680      0.70152      0.58697  1.0000
  O1          0.34084      0.71839      0.92186  1.0000
  O1          0.69510      0.40562      0.74946  1.0000
  O1          0.64408      0.33830      0.08688  1.0000
  O1          0.70627      0.31937      0.41927  1.0000
  O1          0.37152      0.35174      0.98063  1.0000
  O1          0.69179      0.03280      0.31471  1.0000
  O1          0.01680      0.67293      0.64699  1.0000
  O1          0.68119      0.68718      0.48138  1.0000
  O1          0.33884      0.99179      0.79965  1.0000
  O1          0.03441      0.36301      0.14926  1.0000
  O3          0.37504      0.39111      0.37489  1.0000
  O1          0.05786      0.67506      0.04334  1.0000
  O1          0.64612      0.02232      0.68975  1.0000
  O1          0.67652      0.64409      0.87426  1.0000
  O1          0.99497      0.36630      0.54069  1.0000
  O1          0.40122      0.04853      0.20845  1.0000
  O1          0.75637      0.27744      0.01946  1.0000
  O1          0.76560      0.49156      0.35170  1.0000
  O1          0.56553      0.26022      0.67424  1.0000
  O1          0.29732      0.76406      0.51843  1.0000
  O1          0.28481      0.55129      0.85228  1.0000
  O1          0.49686      0.74610      0.18693  1.0000
  O1          0.34339      0.78434      0.33493  1.0000
  O1          0.47332      0.70084      0.00136  1.0000
  O1          0.25306      0.57113      0.66670  1.0000
  O1          0.73474      0.27384      0.82555  1.0000
  O1          0.57607      0.33275      0.49923  1.0000
  O1          0.78870      0.46513      0.16798  1.0000
  O1          0.80291      0.53303      0.02536  1.0000
  O3          0.50706      0.28428      0.36015  1.0000
  O1          0.79502      0.27350      0.70707  1.0000
  O1          0.25184      0.50862      0.52372  1.0000
  O1          0.53712      0.76337      0.85921  1.0000
  O1          0.28828      0.79271      0.19213  1.0000
  O1          0.57483      0.77283      0.30869  1.0000
  O1          0.22990      0.46969      0.97490  1.0000
  O1          0.27391      0.81746      0.63626  1.0000
  O1          0.47941      0.25396      0.81662  1.0000
  O1          0.82255      0.56731      0.47531  1.0000
  O1          0.77561      0.22096      0.14085  1.0000
  O1          0.24056      0.33150      0.90019  1.0000
  O1          0.71496      0.92353      0.23438  1.0000
  O1          0.11588      0.80213      0.56499  1.0000
  O1          0.81347      0.71033      0.40113  1.0000
  O1          0.35894      0.17214      0.73511  1.0000
  O1          0.93092      0.23437      0.06784  1.0000
  O3          0.38258      0.24391      0.43641  1.0000
  O1          0.88930      0.66459      0.10739  1.0000
  O1          0.77139      0.09967      0.77317  1.0000
  O1          0.67130      0.80108      0.94002  1.0000
  O1          0.16256      0.37368      0.60505  1.0000
  O1          0.24297      0.88096      0.27332  1.0000
  O1          0.61051      0.57570      0.98869  1.0000
  O1          0.46731      0.04697      0.32151  1.0000
  O1          0.99174      0.42785      0.65063  1.0000
  O1          0.44312      0.46336      0.48959  1.0000
  O1          0.56773      0.01917      0.83425  1.0000
  O1          0.05183      0.60306      0.15671  1.0000
  O1          0.60744      0.58073      0.33977  1.0000
  O1          0.00476      0.44277      0.00772  1.0000
  O1          0.40872      0.00350      0.68895  1.0000
  O1          0.44624      0.46200      0.83918  1.0000
  O1          0.04999      0.59748      0.50415  1.0000
  O1          0.57979      0.99412      0.17310  1.0000
  O1          0.63712      0.15059      0.24661  1.0000
  O1          0.89258      0.50268      0.57826  1.0000
  O1          0.54836      0.40858      0.91378  1.0000
  O1          0.46728      0.88479      0.75466  1.0000
  O1          0.15806      0.53984      0.08245  1.0000
  O1          0.50326      0.62825      0.41429  1.0000
  F           0.47328      0.87266      0.26304  1.0000
  F           0.17028      0.61012      0.59332  1.0000
  F           0.43188      0.57278      0.92910  1.0000
  F           0.57642      0.16853      0.76187  1.0000
  F           0.87888      0.42507      0.09651  1.0000
  F           0.62443      0.47206      0.42957  1.0000
