data_cif

_audit_creation_method             'generated by GULP'

_symmetry_space_group_name_H-M     'P 1'
_symmetry_Int_Tables_number        1
_symmetry_cell_setting             triclinic

_cell_length_a                       12.3903
_cell_length_b                       12.4301
_cell_length_c                       30.1936
_cell_angle_alpha                   90.1134
_cell_angle_beta                    90.1853
_cell_angle_gamma                  119.9191

loop_
_atom_site_label
_atom_site_fract_x
_atom_site_fract_y
_atom_site_fract_z
_atom_site_occupancy
  Ge          0.69960      0.37570      0.03389  1.0000
  Ge          0.61334      0.30487      0.36701  1.0000
  Ge          0.69162      0.28767      0.70114  1.0000
  Ge          0.29810      0.60063      0.53330  1.0000
  Ge          0.38937      0.67378      0.86573  1.0000
  Ge          0.31606      0.69371      0.19966  1.0000
  Ge          0.35721      0.66349      0.29904  1.0000
  Ge          0.32077      0.63506      0.96500  1.0000
  Ge          0.33103      0.67288      0.63261  1.0000
  Ge          0.64993      0.31504      0.80066  1.0000
  Ge          0.68407      0.34731      0.46643  1.0000
  Ge          0.67545      0.30711      0.13309  1.0000
  Ge          0.53960      0.43872      0.97068  1.0000
  Ge          0.56057      0.08391      0.30373  1.0000
  Ge          0.91043      0.45662      0.63733  1.0000
  Ge          0.46541      0.54853      0.46917  1.0000
  Ge          0.44688      0.89420      0.80281  1.0000
  Ge          0.09581      0.52435      0.13549  1.0000
  Ge          0.40596      0.49077      0.36363  1.0000
  Ge          0.09627      0.58246      0.02990  1.0000
  Ge          0.50446      0.89440      0.69739  1.0000
  Ge          0.59789      0.48626      0.86527  1.0000
  Ge          0.90532      0.39632      0.53171  1.0000
  Ge          0.50407      0.08724      0.19823  1.0000
  Ge          0.30613      0.39995      0.84738  1.0000
  Ge          0.58931      0.88214      0.17881  1.0000
  Ge          0.10955      0.68603      0.51216  1.0000
  Ge          0.69735      0.57674      0.34500  1.0000
  Ge          0.41841      0.09938      0.67862  1.0000
  Ge          0.88849      0.29271      0.01083  1.0000
  Ge          0.39850      0.26217      0.47991  1.0000
  Ge          0.87618      0.59246      0.14665  1.0000
  Ge          0.73399      0.11429      0.81437  1.0000
  Ge          0.60866      0.72664      0.97881  1.0000
  Ge          0.13072      0.38886      0.64716  1.0000
  Ge          0.27346      0.86425      0.31374  1.0000
  Si          0.25717      0.35532      0.94968  1.0000
  Ge          0.64339      0.88076      0.28282  1.0000
  Ge          0.11278      0.74183      0.61637  1.0000
  Ge          0.75214      0.63255      0.44909  1.0000
  Ge          0.36424      0.09797      0.78255  1.0000
  Ge          0.89303      0.23807      0.11482  1.0000
  Ge          0.32781      0.20696      0.37584  1.0000
  Ge          0.88952      0.66057      0.04250  1.0000
  Ge          0.78911      0.10042      0.71020  1.0000
  Ge          0.67354      0.77077      0.87400  1.0000
  Ge          0.11114      0.31662      0.54313  1.0000
  Ge          0.21943      0.88142      0.20971  1.0000
  Ge          0.98444      0.12847      0.96293  1.0000
  Si          0.86567      0.82844      0.29736  1.0000
  Si          0.16569      0.01596      0.63030  1.0000
  Si          0.02602      0.85482      0.46390  1.0000
  Si          0.14055      0.14782      0.79730  1.0000
  Si          0.84140      0.96444      0.13078  1.0000
  Si          0.09869      0.93489      0.36380  1.0000
  Si          0.85430      0.89546      0.03036  1.0000
  Si          0.06180      0.14396      0.69674  1.0000
  Si          0.90665      0.03785      0.86211  1.0000
  Si          0.15375      0.08735      0.53023  1.0000
  Si          0.94683      0.83811      0.19718  1.0000
  O3          0.94750      0.01697      0.00329  1.0000
  O2          0.97821      0.89234      0.33275  1.0000
  O2          0.10216      0.06605      0.66501  1.0000
  O2          0.07497      0.96775      0.49900  1.0000
  O2          0.02394      0.07740      0.83008  1.0000
  O2          0.90465      0.91747      0.16700  1.0000
  O1          0.32169      0.54203      0.33388  1.0000
  O1          0.45340      0.75935      0.66751  1.0000
  O1          0.23220      0.66556      0.00042  1.0000
  O1          0.68294      0.43448      0.83651  1.0000
  O1          0.55618      0.22289      0.16897  1.0000
  O1          0.76901      0.31215      0.50226  1.0000
  O1          0.56569      0.34349      0.00180  1.0000
  O1          0.78665      0.42084      0.66862  1.0000
  O1          0.65047      0.20832      0.33467  1.0000
  O1          0.42988      0.63763      0.50001  1.0000
  O1          0.22118      0.56126      0.16641  1.0000
  O1          0.35300      0.76925      0.83264  1.0000
  O3          0.14047      0.23461      0.97132  1.0000
  O3          0.77558      0.88393      0.30551  1.0000
  O3          0.11038      0.87098      0.63887  1.0000
  O3          0.88030      0.76522      0.47172  1.0000
  O3          0.23281      0.09515      0.80553  1.0000
  O3          0.89810      0.11050      0.13733  1.0000
  O3          0.19213      0.07914      0.35540  1.0000
  O3          0.89351      0.79259      0.02123  1.0000
  O3          0.91648      0.09265      0.68937  1.0000
  O3          0.80868      0.89532      0.85232  1.0000
  O3          0.10178      0.18052      0.52264  1.0000
  O3          0.09163      0.88931      0.18898  1.0000
  O2          0.92370      0.85998      0.24825  1.0000
  O2          0.13258      0.04007      0.58094  1.0000
  O3          0.95745      0.05637      0.91221  1.0000
  O2          0.08888      0.12123      0.74716  1.0000
  O2          0.87171      0.93244      0.08234  1.0000
  O2          0.05246      0.91225      0.41468  1.0000
  O1          0.90038      0.20139      0.96963  1.0000
  O3          0.78924      0.68125      0.30395  1.0000
  O3          0.31339      0.08673      0.63722  1.0000
  O3          0.09649      0.77787      0.47103  1.0000
  O3          0.21096      0.29371      0.80724  1.0000
  O3          0.69392      0.89543      0.13754  1.0000
  O3          0.17011      0.86010      0.35416  1.0000
  O3          0.71056      0.83763      0.01713  1.0000
  O3          0.13596      0.28982      0.68731  1.0000
  O3          0.83772      0.11670      0.85469  1.0000
  O3          0.29970      0.15907      0.52024  1.0000
  O3          0.87208      0.69247      0.18680  1.0000
  O1          0.31989      0.61027      0.24573  1.0000
  O1          0.38322      0.68826      0.57934  1.0000
  O1          0.30422      0.67347      0.91214  1.0000
  O1          0.68838      0.37018      0.74776  1.0000
  O1          0.61821      0.28944      0.08015  1.0000
  O1          0.70136      0.31003      0.41334  1.0000
  O3          0.38028      0.34816      0.95718  1.0000
  O1          0.65619      0.02096      0.29217  1.0000
  O1          0.97258      0.61463      0.62603  1.0000
  O1          0.62370      0.64460      0.45779  1.0000
  O1          0.35177      0.95797      0.79105  1.0000
  O1          0.03313      0.36612      0.12432  1.0000
  O1          0.33346      0.33436      0.35147  1.0000
  O1          0.01226      0.65548      0.01832  1.0000
  O1          0.66115      0.97884      0.68560  1.0000
  O1          0.66953      0.64156      0.85202  1.0000
  O1          0.98854      0.32301      0.51928  1.0000
  O1          0.34733      0.00333      0.18575  1.0000
  O1          0.76032      0.30502      0.99929  1.0000
  O1          0.68252      0.43632      0.33257  1.0000
  O1          0.55908      0.22495      0.66662  1.0000
  O1          0.23434      0.66994      0.49927  1.0000
  O1          0.31746      0.53784      0.83340  1.0000
  O1          0.44865      0.75735      0.16566  1.0000
  O1          0.25958      0.72038      0.31403  1.0000
  O1          0.47454      0.73427      0.98055  1.0000
  O1          0.27481      0.51896      0.64753  1.0000
  O1          0.74743      0.25802      0.81581  1.0000
  O1          0.52932      0.24901      0.48065  1.0000
  O1          0.73249      0.46165      0.14760  1.0000
  O1          0.75198      0.53661      0.02588  1.0000
  O1          0.45177      0.19350      0.35913  1.0000
  O1          0.80273      0.23758      0.69350  1.0000
  O1          0.24785      0.43949      0.52581  1.0000
  O1          0.55060      0.78403      0.85559  1.0000
  O1          0.20528      0.74439      0.19232  1.0000
  O1          0.51402      0.76574      0.30833  1.0000
  O3          0.27002      0.47778      0.97284  1.0000
  O1          0.22860      0.72731      0.64177  1.0000
  O1          0.49302      0.21301      0.80883  1.0000
  O1          0.73780      0.50384      0.47515  1.0000
  O1          0.77763      0.25175      0.14077  1.0000
  O3          0.22614      0.34875      0.89727  1.0000
  O1          0.64668      0.85491      0.22708  1.0000
  O1          0.13688      0.76994      0.56060  1.0000
  O1          0.78139      0.63474      0.39346  1.0000
  O1          0.36060      0.12509      0.72696  1.0000
  O1          0.86768      0.20917      0.05899  1.0000
  O1          0.31068      0.20624      0.43249  1.0000
  O1          0.90675      0.67847      0.09916  1.0000
  O1          0.79074      0.08455      0.76684  1.0000
  O1          0.69259      0.78211      0.93085  1.0000
  O1          0.09747      0.30069      0.59984  1.0000
  O1          0.21764      0.89645      0.26641  1.0000
  O1          0.56794      0.57865      0.99344  1.0000
  O1          0.42434      0.96784      0.32718  1.0000
  O1          0.02736      0.43631      0.66058  1.0000
  O1          0.44553      0.41283      0.49299  1.0000
  O1          0.58289      0.01038      0.82703  1.0000
  O1          0.98050      0.54560      0.15945  1.0000
  O1          0.55663      0.57301      0.34414  1.0000
  O1          0.02560      0.43270      0.00983  1.0000
  O1          0.42194      0.96270      0.67777  1.0000
  O1          0.44647      0.40378      0.84577  1.0000
  O1          0.97243      0.54618      0.51184  1.0000
  O1          0.58678      0.01931      0.17864  1.0000
  O1          0.52259      0.12336      0.25328  1.0000
  O1          0.86991      0.37978      0.58671  1.0000
  O1          0.61694      0.47120      0.92043  1.0000
  O1          0.48545      0.85654      0.75222  1.0000
  O1          0.13416      0.59976      0.08483  1.0000
  O1          0.38821      0.51015      0.41856  1.0000
  F           0.40782      0.84519      0.23756  1.0000
  F           0.14761      0.54124      0.57095  1.0000
  F           0.45633      0.59079      0.90347  1.0000
  F           0.60019      0.13569      0.73809  1.0000
  F           0.85368      0.43541      0.07056  1.0000
  F           0.55234      0.39595      0.40387  1.0000
