data_cif

_audit_creation_method             'generated by GULP'

_symmetry_space_group_name_H-M     'P 1'
_symmetry_Int_Tables_number        1
_symmetry_cell_setting             triclinic

_cell_length_a                       12.3693
_cell_length_b                       12.4121
_cell_length_c                       30.2620
_cell_angle_alpha                   90.0000
_cell_angle_beta                    90.0000
_cell_angle_gamma                  119.9465

loop_
_atom_site_label
_atom_site_fract_x
_atom_site_fract_y
_atom_site_fract_z
_atom_site_occupancy
  Ge          0.69960      0.37570      0.03389  1.0000
  Ge          0.61134      0.30261      0.36645  1.0000
  Ge          0.68137      0.28365      0.70057  1.0000
  Ge          0.29694      0.60027      0.53389  1.0000
  Ge          0.38520      0.67336      0.86645  1.0000
  Ge          0.31517      0.69231      0.20058  1.0000
  Ge          0.35493      0.66189      0.29930  1.0000
  Ge          0.31321      0.63302      0.96549  1.0000
  Ge          0.32610      0.67172      0.63268  1.0000
  Ge          0.64162      0.31409      0.79930  1.0000
  Ge          0.68334      0.34295      0.46549  1.0000
  Ge          0.67044      0.30425      0.13268  1.0000
  Ge          0.53538      0.43024      0.96947  1.0000
  Ge          0.55754      0.08195      0.30337  1.0000
  Ge          0.90126      0.45107      0.63509  1.0000
  Ge          0.46117      0.54573      0.46947  1.0000
  Ge          0.43900      0.89403      0.80337  1.0000
  Ge          0.09528      0.52489      0.13509  1.0000
  Ge          0.40364      0.48975      0.36397  1.0000
  Ge          0.09203      0.57918      0.02986  1.0000
  Ge          0.49536      0.89167      0.69866  1.0000
  Ge          0.59290      0.48623      0.86396  1.0000
  Ge          0.90452      0.39679      0.52985  1.0000
  Ge          0.50117      0.08430      0.19866  1.0000
  Ge          0.30077      0.40012      0.84520  1.0000
  Ge          0.58960      0.88200      0.17977  1.0000
  Ge          0.10590      0.68221      0.51128  1.0000
  Ge          0.69577      0.57585      0.34520  1.0000
  Ge          0.40694      0.09396      0.67977  1.0000
  Ge          0.89065      0.29376      0.01128  1.0000
  Ge          0.39675      0.25928      0.48031  1.0000
  Ge          0.87279      0.59428      0.14550  1.0000
  Ge          0.72525      0.11323      0.81427  1.0000
  Ge          0.59980      0.71669      0.98031  1.0000
  Ge          0.12375      0.38168      0.64550  1.0000
  Ge          0.27130      0.86275      0.31427  1.0000
  Ge          0.24650      0.34728      0.94917  1.0000
  Ge          0.64085      0.87889      0.28298  1.0000
  Ge          0.10693      0.73796      0.61588  1.0000
  Ge          0.75005      0.62869      0.44918  1.0000
  Ge          0.35569      0.09709      0.78298  1.0000
  Ge          0.88961      0.23801      0.11588  1.0000
  Ge          0.32551      0.20500      0.37640  1.0000
  Ge          0.88403      0.65957      0.04288  1.0000
  Ge          0.78042      0.09777      0.71099  1.0000
  Ge          0.67103      0.77098      0.87640  1.0000
  Ge          0.11252      0.31640      0.54288  1.0000
  Ge          0.21612      0.87819      0.21098  1.0000
  Si          0.97258      0.12341      0.96417  1.0000
  Si          0.86361      0.82823      0.29748  1.0000
  Si          0.15564      0.01148      0.63028  1.0000
  Si          0.02397      0.85256      0.46417  1.0000
  Si          0.13293      0.14774      0.79748  1.0000
  Si          0.84089      0.96449      0.13028  1.0000
  Si          0.09568      0.93278      0.36414  1.0000
  Si          0.84599      0.89048      0.03007  1.0000
  Si          0.05167      0.13786      0.69733  1.0000
  Si          0.90086      0.04319      0.86413  1.0000
  Si          0.15056      0.08549      0.53007  1.0000
  Si          0.94487      0.83810      0.19733  1.0000
  O2          0.92405      0.00968      0.99873  1.0000
  O2          0.97724      0.89181      0.33226  1.0000
  O2          0.08892      0.05766      0.66527  1.0000
  O2          0.07250      0.96629      0.49873  1.0000
  O2          0.01931      0.08417      0.83226  1.0000
  O2          0.90763      0.91831      0.16527  1.0000
  O1          0.31868      0.54000      0.33424  1.0000
  O1          0.44501      0.75640      0.66896  1.0000
  O1          0.22548      0.66881      0.99964  1.0000
  O1          0.67786      0.43598      0.83423  1.0000
  O1          0.55152      0.21957      0.16896  1.0000
  O1          0.77107      0.30716      0.49963  1.0000
  O1          0.56786      0.33883      0.00034  1.0000
  O1          0.77434      0.41211      0.66517  1.0000
  O1          0.64858      0.20714      0.33366  1.0000
  O1          0.42869      0.63714      0.50035  1.0000
  O1          0.22219      0.56385      0.16518  1.0000
  O1          0.34796      0.76884      0.83366  1.0000
  O3          0.11784      0.21629      0.97242  1.0000
  O3          0.77323      0.88315      0.30621  1.0000
  O3          0.09911      0.86529      0.63713  1.0000
  O3          0.87871      0.75968      0.47242  1.0000
  O3          0.22332      0.09284      0.80621  1.0000
  O3          0.89742      0.11067      0.13713  1.0000
  O3          0.18953      0.07757      0.35618  1.0000
  O3          0.89589      0.79582      0.02135  1.0000
  O3          0.90591      0.08626      0.69023  1.0000
  O3          0.80701      0.89841      0.85618  1.0000
  O3          0.10066      0.18015      0.52135  1.0000
  O3          0.09063      0.88970      0.19023  1.0000
  O2          0.91929      0.86047      0.24793  1.0000
  O2          0.12604      0.03800      0.58076  1.0000
  O2          0.94965      0.06735      0.91471  1.0000
  O2          0.07726      0.11550      0.74793  1.0000
  O2          0.87051      0.93798      0.08076  1.0000
  O2          0.04690      0.90862      0.41471  1.0000
  O3          0.89796      0.19683      0.97094  1.0000
  O3          0.78819      0.68071      0.30413  1.0000
  O3          0.30285      0.08182      0.63824  1.0000
  O3          0.09858      0.77914      0.47094  1.0000
  O3          0.20835      0.29526      0.80413  1.0000
  O3          0.69369      0.89414      0.13824  1.0000
  O3          0.16745      0.85798      0.35477  1.0000
  O3          0.69936      0.82090      0.02055  1.0000
  O3          0.12690      0.28315      0.68664  1.0000
  O3          0.82910      0.11800      0.85477  1.0000
  O3          0.29718      0.15506      0.52055  1.0000
  O3          0.86964      0.69281      0.18664  1.0000
  O1          0.31884      0.60747      0.24608  1.0000
  O1          0.38306      0.65706      0.58301  1.0000
  O1          0.29886      0.67167      0.91250  1.0000
  O1          0.67771      0.36850      0.74607  1.0000
  O1          0.61349      0.31891      0.08301  1.0000
  O1          0.69769      0.30430      0.41250  1.0000
  O1          0.37542      0.33682      0.95870  1.0000
  O1          0.65374      0.01954      0.29157  1.0000
  O1          0.00052      0.60976      0.64376  1.0000
  O1          0.62113      0.63915      0.45870  1.0000
  O1          0.34280      0.95644      0.79157  1.0000
  O1          0.99602      0.36620      0.14376  1.0000
  O1          0.33069      0.33288      0.35255  1.0000
  O1          0.02794      0.67450      0.03419  1.0000
  O1          0.65109      0.97995      0.68532  1.0000
  O1          0.66585      0.64310      0.85255  1.0000
  O1          0.96861      0.30147      0.53419  1.0000
  O1          0.34545      0.99601      0.18532  1.0000
  O1          0.74628      0.27923      0.00763  1.0000
  O1          0.68136      0.43554      0.33271  1.0000
  O1          0.54895      0.21665      0.66621  1.0000
  O1          0.25027      0.69675      0.50763  1.0000
  O1          0.31518      0.54043      0.83271  1.0000
  O1          0.44759      0.75931      0.16621  1.0000
  O1          0.25646      0.71811      0.31417  1.0000
  O1          0.46775      0.72797      0.98140  1.0000
  O1          0.23939      0.52832      0.65852  1.0000
  O1          0.74009      0.25786      0.81417  1.0000
  O1          0.52879      0.24800      0.48140  1.0000
  O1          0.75714      0.44764      0.15852  1.0000
  O1          0.76630      0.53471      0.01656  1.0000
  O1          0.44959      0.19219      0.35893  1.0000
  O1          0.79468      0.23663      0.69655  1.0000
  O1          0.23025      0.44126      0.51656  1.0000
  O1          0.54695      0.78379      0.85894  1.0000
  O1          0.20186      0.73934      0.19655  1.0000
  O1          0.51184      0.76339      0.30895  1.0000
  O1          0.25603      0.47554      0.97450  1.0000
  O1          0.25144      0.75737      0.62585  1.0000
  O1          0.48471      0.21259      0.80895  1.0000
  O1          0.74051      0.50043      0.47450  1.0000
  O1          0.74510      0.21860      0.12585  1.0000
  O1          0.21733      0.34218      0.89353  1.0000
  O1          0.64568      0.85113      0.22757  1.0000
  O1          0.07699      0.73411      0.56029  1.0000
  O1          0.77922      0.63379      0.39353  1.0000
  O1          0.35086      0.12484      0.72757  1.0000
  O1          0.91955      0.24186      0.06029  1.0000
  O1          0.30967      0.20267      0.43301  1.0000
  O1          0.84730      0.65472      0.09815  1.0000
  O1          0.77943      0.07774      0.76737  1.0000
  O1          0.68688      0.77330      0.93301  1.0000
  O1          0.14925      0.32125      0.59815  1.0000
  O1          0.21711      0.89823      0.26737  1.0000
  O1          0.55815      0.56722      0.99356  1.0000
  O1          0.42240      0.96558      0.32784  1.0000
  O1          0.98231      0.37294      0.64493  1.0000
  O1          0.43840      0.40875      0.49356  1.0000
  O1          0.57415      0.01040      0.82785  1.0000
  O1          0.01422      0.60302      0.14493  1.0000
  O1          0.55451      0.57134      0.34424  1.0000
  O1          0.00074      0.44568      0.99952  1.0000
  O1          0.40615      0.95519      0.68157  1.0000
  O1          0.44203      0.40464      0.84424  1.0000
  O1          0.99581      0.53029      0.49952  1.0000
  O1          0.59038      0.02077      0.18157  1.0000
  O1          0.51657      0.12098      0.25355  1.0000
  O1          0.86289      0.43080      0.57929  1.0000
  O1          0.60981      0.46511      0.91871  1.0000
  O1          0.47998      0.85499      0.75355  1.0000
  O1          0.13365      0.54517      0.07929  1.0000
  O1          0.38673      0.51086      0.41872  1.0000
  F           0.40944      0.84357      0.23926  1.0000
  F           0.14589      0.53893      0.57145  1.0000
  F           0.44531      0.58193      0.90439  1.0000
  F           0.58710      0.13240      0.73926  1.0000
  F           0.85065      0.43704      0.07145  1.0000
  F           0.55123      0.39404      0.40439  1.0000
