data_cif

_audit_creation_method             'generated by GULP'

_symmetry_space_group_name_H-M     'P 1'
_symmetry_Int_Tables_number        1
_symmetry_cell_setting             triclinic

_cell_length_a                       12.3872
_cell_length_b                       12.4047
_cell_length_c                       30.2365
_cell_angle_alpha                   89.6245
_cell_angle_beta                    90.2293
_cell_angle_gamma                  119.8563

loop_
_atom_site_label
_atom_site_fract_x
_atom_site_fract_y
_atom_site_fract_z
_atom_site_occupancy
  Ge          0.69960      0.37570      0.03389  1.0000
  Ge          0.66701      0.33459      0.36697  1.0000
  Ge          0.70288      0.34423      0.69940  1.0000
  Ge          0.35199      0.66274      0.53601  1.0000
  Ge          0.37614      0.70470      0.86915  1.0000
  Ge          0.34130      0.68952      0.20227  1.0000
  Ge          0.41375      0.72164      0.30140  1.0000
  Ge          0.33814      0.62895      0.96816  1.0000
  Ge          0.31877      0.69896      0.63473  1.0000
  Ge          0.63352      0.31913      0.79845  1.0000
  Ge          0.71251      0.40118      0.46609  1.0000
  Ge          0.72536      0.33174      0.13321  1.0000
  Ge          0.52807      0.42497      0.96836  1.0000
  Ge          0.61832      0.11550      0.30148  1.0000
  Ge          0.92438      0.51236      0.63329  1.0000
  Ge          0.52397      0.60991      0.47154  1.0000
  Ge          0.42871      0.92646      0.80498  1.0000
  Ge          0.11916      0.51743      0.13798  1.0000
  Ge          0.46484      0.55295      0.36610  1.0000
  Ge          0.11945      0.57695      0.03266  1.0000
  Ge          0.48138      0.91891      0.69958  1.0000
  Ge          0.58181      0.48520      0.86262  1.0000
  Ge          0.93672      0.46625      0.52839  1.0000
  Ge          0.55735      0.11021      0.19620  1.0000
  Ge          0.29417      0.42011      0.85315  1.0000
  Ge          0.62528      0.89040      0.18671  1.0000
  Ge          0.15543      0.75325      0.52076  1.0000
  Ge          0.75236      0.62074      0.35421  1.0000
  Ge          0.41255      0.14177      0.68770  1.0000
  Ge          0.90034      0.29057      0.02101  1.0000
  Ge          0.44136      0.31892      0.48988  1.0000
  Ge          0.91320      0.60336      0.15587  1.0000
  Ge          0.71485      0.12812      0.82258  1.0000
  Ge          0.61302      0.71467      0.98824  1.0000
  Ge          0.12711      0.42372      0.65134  1.0000
  Ge          0.32836      0.91042      0.32150  1.0000
  Ge          0.24197      0.34503      0.95705  1.0000
  Ge          0.69768      0.90963      0.29055  1.0000
  Ge          0.13307      0.79735      0.62494  1.0000
  Ge          0.80849      0.68709      0.45823  1.0000
  Ge          0.34926      0.13476      0.79051  1.0000
  Ge          0.91322      0.23374      0.12495  1.0000
  Ge          0.38088      0.26593      0.38604  1.0000
  Ge          0.91632      0.66084      0.05196  1.0000
  Ge          0.76865      0.12574      0.71797  1.0000
  Ge          0.66349      0.77208      0.88407  1.0000
  Si          0.13590      0.38292      0.54967  1.0000
  Ge          0.27175      0.90694      0.21768  1.0000
  Si          0.96985      0.11578      0.97009  1.0000
  Si          0.92703      0.86656      0.30333  1.0000
  Si          0.16472      0.06362      0.63806  1.0000
  Si          0.07869      0.92239      0.46994  1.0000
  Si          0.11904      0.17486      0.80413  1.0000
  Si          0.87051      0.96140      0.13681  1.0000
  Si          0.15871      0.99272      0.36967  1.0000
  Si          0.86502      0.88344      0.03669  1.0000
  Si          0.04211      0.17292      0.70334  1.0000
  Si          0.88603      0.04677      0.87001  1.0000
  Ge          0.18080      0.15588      0.53724  1.0000
  Si          0.99721      0.85509      0.20330  1.0000
  O2          0.92941      0.99655      0.00162  1.0000
  O2          0.04862      0.94605      0.33344  1.0000
  O2          0.08552      0.09810      0.67154  1.0000
  O3          0.10635      0.04311      0.49738  1.0000
  O2          0.00112      0.09703      0.83603  1.0000
  O2          0.94882      0.91900      0.16776  1.0000
  O1          0.37639      0.59035      0.33533  1.0000
  O1          0.44562      0.79112      0.67084  1.0000
  O1          0.24477      0.66593      0.00216  1.0000
  O1          0.67146      0.45215      0.83114  1.0000
  O1          0.59101      0.23432      0.16504  1.0000
  O1          0.81535      0.36932      0.49757  1.0000
  O1          0.58033      0.34058      0.99767  1.0000
  O1          0.78706      0.46007      0.66195  1.0000
  O1          0.70183      0.25156      0.33047  1.0000
  O1          0.47284      0.69376      0.50142  1.0000
  O1          0.25397      0.56713      0.16793  1.0000
  O1          0.33971      0.79419      0.83593  1.0000
  O3          0.11549      0.20804      0.97714  1.0000
  O3          0.83386      0.91849      0.31125  1.0000
  O3          0.11822      0.91969      0.64629  1.0000
  O3          0.93719      0.81845      0.47944  1.0000
  O3          0.21415      0.12498      0.81233  1.0000
  O3          0.92043      0.10551      0.14550  1.0000
  O3          0.24790      0.13907      0.36337  1.0000
  O3          0.92146      0.79387      0.02917  1.0000
  O3          0.89628      0.11885      0.69650  1.0000
  O3          0.79360      0.90227      0.86120  1.0000
  O3          0.13217      0.26259      0.52762  1.0000
  O3          0.14254      0.90960      0.19491  1.0000
  O2          0.97190      0.88774      0.25230  1.0000
  O3          0.13409      0.08655      0.58838  1.0000
  O2          0.94149      0.06770      0.91958  1.0000
  O2          0.06852      0.15094      0.75391  1.0000
  O2          0.89495      0.94043      0.08591  1.0000
  O2          0.09644      0.96008      0.41806  1.0000
  O3          0.89693      0.18868      0.98043  1.0000
  O3          0.85583      0.72087      0.31394  1.0000
  O3          0.31182      0.14219      0.64649  1.0000
  O3          0.16582      0.86528      0.48249  1.0000
  O3          0.18897      0.32112      0.81320  1.0000
  O3          0.72425      0.88570      0.14636  1.0000
  O3          0.23744      0.92392      0.36276  1.0000
  O3          0.71773      0.80638      0.02934  1.0000
  O3          0.11674      0.31767      0.69159  1.0000
  O3          0.81224      0.12113      0.86318  1.0000
  O1          0.33787      0.22705      0.53094  1.0000
  O3          0.92541      0.70759      0.19691  1.0000
  O1          0.32634      0.63699      0.25560  1.0000
  O1          0.40604      0.69987      0.58914  1.0000
  O1          0.33752      0.71582      0.92245  1.0000
  O1          0.68989      0.40308      0.74879  1.0000
  O1          0.64365      0.33788      0.08672  1.0000
  O1          0.70673      0.31529      0.41963  1.0000
  O1          0.37125      0.35054      0.98026  1.0000
  O1          0.69144      0.03181      0.31418  1.0000
  O1          0.01069      0.66642      0.64790  1.0000
  O1          0.68123      0.68235      0.48266  1.0000
  O1          0.33414      0.99152      0.80047  1.0000
  O1          0.03430      0.36064      0.14976  1.0000
  O1          0.36904      0.39454      0.37710  1.0000
  O1          0.05715      0.67313      0.04379  1.0000
  O1          0.64032      0.01831      0.69078  1.0000
  O1          0.67490      0.64463      0.87331  1.0000
  O3          0.00556      0.37560      0.54220  1.0000
  O1          0.39895      0.04722      0.20795  1.0000
  O1          0.75633      0.27741      0.01987  1.0000
  O1          0.76488      0.48958      0.35284  1.0000
  O1          0.55841      0.25796      0.67416  1.0000
  O1          0.29813      0.76248      0.52016  1.0000
  O1          0.28192      0.55137      0.85265  1.0000
  O1          0.49537      0.74619      0.18680  1.0000
  O1          0.34505      0.78613      0.33502  1.0000
  O1          0.47226      0.69849      0.00142  1.0000
  O1          0.25105      0.56225      0.66671  1.0000
  O1          0.72957      0.27226      0.82540  1.0000
  O1          0.58156      0.32994      0.50086  1.0000
  O1          0.78714      0.46272      0.16787  1.0000
  O1          0.80264      0.53253      0.02546  1.0000
  O1          0.50943      0.27972      0.35970  1.0000
  O1          0.78835      0.26963      0.70696  1.0000
  O3          0.24656      0.50566      0.52694  1.0000
  O1          0.53382      0.76293      0.85966  1.0000
  O1          0.28610      0.79132      0.19261  1.0000
  O1          0.57526      0.77263      0.30835  1.0000
  O1          0.22870      0.46762      0.97532  1.0000
  O1          0.27027      0.81073      0.64175  1.0000
  O1          0.47487      0.25364      0.81595  1.0000
  O1          0.82166      0.56233      0.47436  1.0000
  O1          0.77529      0.21995      0.14112  1.0000
  O1          0.23873      0.33163      0.90037  1.0000
  O1          0.71381      0.92343      0.23388  1.0000
  O1          0.12277      0.80704      0.56823  1.0000
  O1          0.80853      0.70612      0.40167  1.0000
  O1          0.35209      0.16780      0.73488  1.0000
  O1          0.93117      0.23381      0.06841  1.0000
  O1          0.37774      0.23604      0.44170  1.0000
  O1          0.88797      0.66218      0.10741  1.0000
  O1          0.76622      0.09798      0.77380  1.0000
  O1          0.66980      0.79873      0.93992  1.0000
  O3          0.16046      0.37437      0.60195  1.0000
  O1          0.24306      0.88197      0.27340  1.0000
  O1          0.60990      0.57445      0.98863  1.0000
  O1          0.46781      0.04799      0.32112  1.0000
  O1          0.98889      0.42388      0.65078  1.0000
  O1          0.44538      0.45963      0.49138  1.0000
  O1          0.56312      0.01847      0.83473  1.0000
  O1          0.05019      0.59956      0.15710  1.0000
  O1          0.60104      0.57434      0.34185  1.0000
  O1          0.00437      0.44165      0.00836  1.0000
  O1          0.40528      0.00150      0.68856  1.0000
  O1          0.44368      0.46284      0.83931  1.0000
  O1          0.04947      0.60547      0.50534  1.0000
  O1          0.57753      0.99371      0.17303  1.0000
  O1          0.63558      0.15075      0.24642  1.0000
  O1          0.89131      0.50082      0.57809  1.0000
  O1          0.54891      0.41040      0.91348  1.0000
  O1          0.46048      0.88282      0.75567  1.0000
  O1          0.15735      0.53765      0.08319  1.0000
  O1          0.50232      0.62779      0.41677  1.0000
  F           0.47257      0.87250      0.26286  1.0000
  F           0.16987      0.61382      0.59527  1.0000
  F           0.43003      0.57140      0.92929  1.0000
  F           0.57117      0.16703      0.76176  1.0000
  F           0.87834      0.42343      0.09683  1.0000
  F           0.61842      0.46218      0.43007  1.0000
