data_cif

_audit_creation_method             'generated by GULP'

_symmetry_space_group_name_H-M     'P 1'
_symmetry_Int_Tables_number        1
_symmetry_cell_setting             triclinic

_cell_length_a                       12.4254
_cell_length_b                       12.4301
_cell_length_c                       30.1936
_cell_angle_alpha                   89.8865
_cell_angle_beta                    90.2983
_cell_angle_gamma                  120.1992

loop_
_atom_site_label
_atom_site_fract_x
_atom_site_fract_y
_atom_site_fract_z
_atom_site_occupancy
  Ge          0.69960      0.37570      0.03389  1.0000
  Ge          0.67342      0.34013      0.36745  1.0000
  Ge          0.70985      0.34814      0.70150  1.0000
  Ge          0.35518      0.66551      0.53341  1.0000
  Ge          0.38070      0.69896      0.86584  1.0000
  Ge          0.34656      0.69709      0.20007  1.0000
  Ge          0.41729      0.72538      0.29949  1.0000
  Ge          0.33901      0.62991      0.96536  1.0000
  Ge          0.33103      0.70995      0.63261  1.0000
  Ge          0.64126      0.31827      0.80076  1.0000
  Ge          0.71457      0.41150      0.46684  1.0000
  Ge          0.73253      0.33639      0.13320  1.0000
  Ge          0.52617      0.42378      0.96911  1.0000
  Ge          0.62467      0.11866      0.30287  1.0000
  Ge          0.93436      0.52004      0.63660  1.0000
  Ge          0.52656      0.61703      0.46827  1.0000
  Ge          0.43274      0.92222      0.80123  1.0000
  Ge          0.12531      0.52485      0.13479  1.0000
  Ge          0.47005      0.55718      0.36277  1.0000
  Ge          0.12020      0.58004      0.02917  1.0000
  Ge          0.49103      0.93297      0.69582  1.0000
  Ge          0.58374      0.48116      0.86369  1.0000
  Ge          0.93482      0.46239      0.53101  1.0000
  Ge          0.56522      0.11698      0.19733  1.0000
  Ge          0.29664      0.41415      0.85213  1.0000
  Ge          0.63213      0.89752      0.18658  1.0000
  Ge          0.15445      0.75013      0.51985  1.0000
  Ge          0.75717      0.62465      0.35276  1.0000
  Ge          0.42197      0.15183      0.68768  1.0000
  Ge          0.89991      0.29199      0.01934  1.0000
  Ge          0.44132      0.32668      0.48769  1.0000
  Ge          0.92108      0.61033      0.15434  1.0000
  Ge          0.72450      0.12767      0.81912  1.0000
  Ge          0.61222      0.71482      0.98788  1.0000
  Ge          0.14214      0.43807      0.65567  1.0000
  Ge          0.33328      0.91324      0.32150  1.0000
  Ge          0.24152      0.34516      0.95630  1.0000
  Ge          0.70282      0.91300      0.29066  1.0000
  Ge          0.14111      0.80490      0.62399  1.0000
  Ge          0.81120      0.69584      0.45678  1.0000
  Ge          0.35708      0.13108      0.79249  1.0000
  Ge          0.91949      0.23932      0.12336  1.0000
  Ge          0.38724      0.27122      0.38368  1.0000
  Ge          0.91785      0.66291      0.05013  1.0000
  Si          0.77346      0.13200      0.71682  1.0000
  Ge          0.66639      0.76758      0.88394  1.0000
  Ge          0.13760      0.37889      0.55168  1.0000
  Ge          0.27849      0.91426      0.21741  1.0000
  Si          0.96883      0.11601      0.96975  1.0000
  Si          0.93194      0.87005      0.30269  1.0000
  Si          0.17633      0.07501      0.63613  1.0000
  Si          0.08380      0.92513      0.46931  1.0000
  Si          0.12398      0.16505      0.80439  1.0000
  Si          0.87688      0.96745      0.13627  1.0000
  Si          0.16496      0.99662      0.36914  1.0000
  Si          0.86494      0.88413      0.03620  1.0000
  Ge          0.04619      0.17788      0.70356  1.0000
  Si          0.89008      0.04111      0.86920  1.0000
  Si          0.18923      0.15689      0.53572  1.0000
  Si          0.00460      0.86265      0.20259  1.0000
  O2          0.92847      0.99774      0.00149  1.0000
  O2          0.05242      0.94798      0.33375  1.0000
  O3          0.08313      0.10332      0.66320  1.0000
  O2          0.12597      0.04667      0.49950  1.0000
  O2          0.00669      0.08731      0.83642  1.0000
  O2          0.95566      0.92663      0.16750  1.0000
  O1          0.38016      0.59170      0.33183  1.0000
  O1          0.46494      0.81165      0.66470  1.0000
  O1          0.24398      0.66804      0.99788  1.0000
  O1          0.67763      0.45010      0.83386  1.0000
  O1          0.60075      0.24160      0.16649  1.0000
  O1          0.80945      0.37392      0.50009  1.0000
  O1          0.57723      0.33979      0.99898  1.0000
  O1          0.79843      0.46721      0.66607  1.0000
  O1          0.70894      0.25420      0.33261  1.0000
  O1          0.47445      0.70057      0.49753  1.0000
  O1          0.26162      0.57699      0.16424  1.0000
  O1          0.34769      0.78539      0.82998  1.0000
  O3          0.11415      0.21002      0.97712  1.0000
  O3          0.83850      0.92086      0.31109  1.0000
  O3          0.13712      0.93293      0.64527  1.0000
  O3          0.93900      0.83153      0.47752  1.0000
  O3          0.22195      0.12048      0.81417  1.0000
  O3          0.92885      0.11258      0.14385  1.0000
  O3          0.25505      0.14220      0.36099  1.0000
  O3          0.92025      0.79445      0.02763  1.0000
  O3          0.89016      0.12799      0.69518  1.0000
  O3          0.79781      0.89618      0.86097  1.0000
  O3          0.13253      0.24626      0.52917  1.0000
  O3          0.15033      0.91876      0.19478  1.0000
  O2          0.97817      0.89364      0.25182  1.0000
  O2          0.15891      0.09457      0.58416  1.0000
  O2          0.94175      0.06619      0.91934  1.0000
  O3          0.07318      0.13277      0.75429  1.0000
  O2          0.89804      0.94134      0.08555  1.0000
  O2          0.10693      0.97013      0.41825  1.0000
  O3          0.89467      0.18772      0.97919  1.0000
  O3          0.86052      0.72385      0.31234  1.0000
  O3          0.32007      0.16092      0.64936  1.0000
  O3          0.15855      0.85424      0.47970  1.0000
  O3          0.19291      0.31283      0.81181  1.0000
  O3          0.73093      0.89322      0.14626  1.0000
  O3          0.24139      0.92586      0.36255  1.0000
  O3          0.71724      0.80719      0.02928  1.0000
  O1          0.13025      0.33486      0.69687  1.0000
  O3          0.81967      0.11660      0.85926  1.0000
  O3          0.33671      0.23535      0.52896  1.0000
  O3          0.93414      0.71524      0.19546  1.0000
  O1          0.32927      0.64252      0.25316  1.0000
  O1          0.41242      0.70509      0.58635  1.0000
  O1          0.34225      0.71565      0.91873  1.0000
  O1          0.72640      0.40310      0.75435  1.0000
  O1          0.64741      0.33889      0.08716  1.0000
  O1          0.71073      0.32422      0.42077  1.0000
  O1          0.36948      0.35155      0.98089  1.0000
  O1          0.69717      0.03476      0.31503  1.0000
  O1          0.01837      0.67707      0.64817  1.0000
  O1          0.68330      0.68985      0.48075  1.0000
  O1          0.36110      0.00588      0.81448  1.0000
  O1          0.04209      0.36832      0.14721  1.0000
  O1          0.37444      0.39863      0.37432  1.0000
  O1          0.05805      0.67590      0.04047  1.0000
  O3          0.65035      0.00173      0.70931  1.0000
  O1          0.67886      0.64005      0.87545  1.0000
  O1          0.99750      0.36684      0.54217  1.0000
  O1          0.40693      0.05475      0.20871  1.0000
  O1          0.75582      0.27800      0.01896  1.0000
  O1          0.77105      0.49465      0.35246  1.0000
  O1          0.55608      0.29358      0.68595  1.0000
  O1          0.29814      0.76301      0.51890  1.0000
  O1          0.28320      0.54444      0.85068  1.0000
  O1          0.50131      0.75354      0.18584  1.0000
  O1          0.34811      0.78765      0.33393  1.0000
  O1          0.47155      0.69972      0.99988  1.0000
  O1          0.27031      0.57855      0.66721  1.0000
  O1          0.71317      0.25423      0.83310  1.0000
  O1          0.58198      0.34255      0.50084  1.0000
  O1          0.79629      0.46945      0.16722  1.0000
  O1          0.80202      0.53255      0.02473  1.0000
  O1          0.51661      0.28558      0.35817  1.0000
  O3          0.76061      0.24161      0.69366  1.0000
  O1          0.25300      0.50797      0.52573  1.0000
  O1          0.53761      0.75384      0.85767  1.0000
  O1          0.29283      0.79989      0.19134  1.0000
  O1          0.57886      0.77558      0.30736  1.0000
  O1          0.22790      0.46870      0.97299  1.0000
  O1          0.27865      0.81848      0.64062  1.0000
  O1          0.48003      0.26728      0.81091  1.0000
  O1          0.82535      0.57296      0.47418  1.0000
  O1          0.78278      0.22549      0.14069  1.0000
  O1          0.23989      0.32766      0.89966  1.0000
  O1          0.71995      0.92941      0.23401  1.0000
  O1          0.12388      0.80557      0.56734  1.0000
  O1          0.81299      0.71265      0.40009  1.0000
  O1          0.33804      0.12338      0.73565  1.0000
  O1          0.93316      0.23707      0.06666  1.0000
  O1          0.38395      0.24209      0.43942  1.0000
  O1          0.89375      0.66691      0.10590  1.0000
  O3          0.80449      0.15646      0.76922  1.0000
  O1          0.67003      0.79834      0.93954  1.0000
  O1          0.16295      0.37534      0.60751  1.0000
  O1          0.24923      0.88719      0.27303  1.0000
  O1          0.60869      0.57461      0.98872  1.0000
  O1          0.47400      0.05023      0.32235  1.0000
  O1          0.00503      0.44095      0.65667  1.0000
  O1          0.44385      0.46639      0.48786  1.0000
  O1          0.58416      0.99115      0.82072  1.0000
  O1          0.05820      0.60761      0.15466  1.0000
  O1          0.60629      0.57735      0.33931  1.0000
  O1          0.00327      0.44280      0.00592  1.0000
  O1          0.46269      0.04456      0.67306  1.0000
  O1          0.44774      0.46134      0.83947  1.0000
  O1          0.05013      0.59895      0.50705  1.0000
  O1          0.58510      0.00116      0.17351  1.0000
  O1          0.64242      0.15579      0.24793  1.0000
  O1          0.89647      0.49945      0.58167  1.0000
  O1          0.54518      0.40494      0.91428  1.0000
  O1          0.41369      0.88811      0.74607  1.0000
  O1          0.16072      0.54372      0.07979  1.0000
  O1          0.50803      0.63462      0.41322  1.0000
  F           0.47829      0.87746      0.26262  1.0000
  F           0.17695      0.61558      0.59594  1.0000
  F           0.43044      0.56935      0.92840  1.0000
  F           0.57430      0.16830      0.76303  1.0000
  F           0.88302      0.42748      0.09555  1.0000
  F           0.62281      0.47122      0.42894  1.0000
