data_cif

_audit_creation_method             'generated by GULP'

_symmetry_space_group_name_H-M     'P 1'
_symmetry_Int_Tables_number        1
_symmetry_cell_setting             triclinic

_cell_length_a                       12.3611
_cell_length_b                       12.4321
_cell_length_c                       30.3080
_cell_angle_alpha                   90.1113
_cell_angle_beta                    90.1143
_cell_angle_gamma                  119.8066

loop_
_atom_site_label
_atom_site_fract_x
_atom_site_fract_y
_atom_site_fract_z
_atom_site_occupancy
  Ge          0.69960      0.37570      0.03389  1.0000
  Ge          0.61512      0.30473      0.36561  1.0000
  Ge          0.68801      0.28691      0.69965  1.0000
  Ge          0.29990      0.60189      0.53235  1.0000
  Ge          0.38907      0.67563      0.86429  1.0000
  Ge          0.31828      0.69459      0.19908  1.0000
  Ge          0.35843      0.66361      0.29776  1.0000
  Ge          0.31859      0.64048      0.96338  1.0000
  Ge          0.33181      0.67488      0.63099  1.0000
  Ge          0.64724      0.31546      0.79841  1.0000
  Ge          0.68725      0.34680      0.46455  1.0000
  Ge          0.67542      0.30532      0.13247  1.0000
  Ge          0.54554      0.43914      0.96845  1.0000
  Ge          0.56137      0.08336      0.30308  1.0000
  Ge          0.90678      0.45586      0.63430  1.0000
  Ge          0.46432      0.54819      0.46758  1.0000
  Ge          0.44487      0.89551      0.80136  1.0000
  Ge          0.10010      0.52591      0.13272  1.0000
  Ge          0.40668      0.49086      0.36212  1.0000
  Ge          0.09557      0.58120      0.02784  1.0000
  Ge          0.50222      0.89496      0.69678  1.0000
  Ge          0.59854      0.48778      0.86336  1.0000
  Ge          0.90820      0.40021      0.52917  1.0000
  Ge          0.50536      0.08699      0.19853  1.0000
  Ge          0.30543      0.40210      0.84430  1.0000
  Ge          0.59275      0.88435      0.17942  1.0000
  Ge          0.10880      0.68450      0.51027  1.0000
  Ge          0.69905      0.57676      0.34401  1.0000
  Ge          0.41391      0.09751      0.67821  1.0000
  Ge          0.89063      0.29595      0.00946  1.0000
  Ge          0.40030      0.26257      0.47866  1.0000
  Ge          0.87722      0.59503      0.14463  1.0000
  Ge          0.73080      0.11452      0.81301  1.0000
  Ge          0.60569      0.72468      0.97773  1.0000
  Ge          0.12982      0.38617      0.64415  1.0000
  Ge          0.27560      0.86469      0.31342  1.0000
  Ge          0.25663      0.35699      0.94797  1.0000
  Ge          0.64409      0.87990      0.28237  1.0000
  Ge          0.11191      0.74151      0.61477  1.0000
  Ge          0.75347      0.63161      0.44790  1.0000
  Ge          0.36210      0.09915      0.78122  1.0000
  Ge          0.89411      0.23866      0.11367  1.0000
  Ge          0.32894      0.20688      0.37488  1.0000
  Ge          0.88512      0.65842      0.04214  1.0000
  Ge          0.78691      0.10093      0.70975  1.0000
  Ge          0.67468      0.77275      0.87351  1.0000
  Ge          0.11604      0.31901      0.54168  1.0000
  Ge          0.22072      0.88139      0.21031  1.0000
  Ge          0.97907      0.12547      0.96258  1.0000
  Si          0.86689      0.82842      0.29671  1.0000
  Si          0.16256      0.01562      0.62854  1.0000
  Si          0.02740      0.85517      0.46294  1.0000
  Si          0.13949      0.15007      0.79540  1.0000
  Si          0.84362      0.96477      0.12986  1.0000
  Si          0.09980      0.93458      0.36313  1.0000
  Si          0.84937      0.89087      0.02977  1.0000
  Si          0.05886      0.14264      0.69535  1.0000
  Si          0.90572      0.04104      0.86102  1.0000
  Si          0.15485      0.08862      0.52852  1.0000
  Si          0.94864      0.83928      0.19670  1.0000
  O3          0.93745      0.01070      0.00148  1.0000
  O2          0.98072      0.89253      0.33143  1.0000
  O2          0.09579      0.06303      0.66294  1.0000
  O2          0.07637      0.96935      0.49727  1.0000
  O2          0.02325      0.08400      0.82867  1.0000
  O2          0.90980      0.91997      0.16565  1.0000
  O1          0.32205      0.54104      0.33210  1.0000
  O1          0.45195      0.76032      0.66679  1.0000
  O1          0.22723      0.67257      0.99722  1.0000
  O1          0.68252      0.43647      0.83365  1.0000
  O1          0.55729      0.22200      0.16891  1.0000
  O1          0.77434      0.31108      0.49906  1.0000
  O1          0.56877      0.34353      0.00053  1.0000
  O1          0.78066      0.41603      0.66479  1.0000
  O1          0.65237      0.20819      0.33345  1.0000
  O1          0.43064      0.63866      0.49842  1.0000
  O1          0.22676      0.56665      0.16331  1.0000
  O1          0.35217      0.77067      0.83117  1.0000
  O1          0.13279      0.22832      0.97184  1.0000
  O3          0.77636      0.88329      0.30543  1.0000
  O3          0.10604      0.86998      0.63579  1.0000
  O3          0.88201      0.76314      0.47085  1.0000
  O3          0.22991      0.09534      0.80441  1.0000
  O3          0.90269      0.11167      0.13460  1.0000
  O3          0.19306      0.07890      0.35499  1.0000
  O3          0.89229      0.79092      0.02010  1.0000
  O3          0.91279      0.09044      0.68883  1.0000
  O3          0.80938      0.89747      0.85188  1.0000
  O3          0.10360      0.18242      0.52035  1.0000
  O3          0.09454      0.89222      0.18960  1.0000
  O2          0.92261      0.85982      0.24736  1.0000
  O2          0.13263      0.04091      0.57900  1.0000
  O3          0.95618      0.05938      0.91086  1.0000
  O2          0.08692      0.12055      0.74552  1.0000
  O2          0.87001      0.93064      0.08125  1.0000
  O2          0.05138      0.91095      0.41360  1.0000
  O1          0.89611      0.20074      0.96880  1.0000
  O3          0.79172      0.68135      0.30325  1.0000
  O3          0.30971      0.08561      0.63666  1.0000
  O3          0.10108      0.78092      0.47001  1.0000
  O3          0.21366      0.29681      0.80333  1.0000
  O3          0.69688      0.89750      0.13795  1.0000
  O3          0.17201      0.86014      0.35385  1.0000
  O3          0.70476      0.83127      0.01746  1.0000
  O3          0.13308      0.28761      0.68503  1.0000
  O3          0.83420      0.11750      0.85352  1.0000
  O3          0.30113      0.15887      0.51874  1.0000
  O3          0.87503      0.69453      0.18552  1.0000
  O1          0.32196      0.61003      0.24447  1.0000
  O1          0.38725      0.65941      0.58122  1.0000
  O1          0.30368      0.67696      0.91023  1.0000
  O1          0.68441      0.37070      0.74548  1.0000
  O1          0.61578      0.31870      0.08307  1.0000
  O1          0.70198      0.30773      0.41174  1.0000
  O1          0.38718      0.34835      0.95539  1.0000
  O1          0.65717      0.02031      0.29133  1.0000
  O1          0.00492      0.61453      0.64261  1.0000
  O1          0.62416      0.64174      0.45720  1.0000
  O1          0.34928      0.95892      0.78955  1.0000
  O1          0.00326      0.36713      0.14065  1.0000
  O1          0.33354      0.33412      0.35096  1.0000
  O1          0.02945      0.67455      0.03318  1.0000
  O1          0.65804      0.98293      0.68401  1.0000
  O1          0.66962      0.64360      0.85120  1.0000
  O1          0.97216      0.30474      0.53322  1.0000
  O1          0.34960      0.99964      0.18505  1.0000
  O1          0.74565      0.28046      0.00669  1.0000
  O1          0.68521      0.43670      0.33178  1.0000
  O1          0.55570      0.22041      0.66519  1.0000
  O1          0.25275      0.69816      0.50634  1.0000
  O1          0.31974      0.54186      0.83115  1.0000
  O1          0.45110      0.76237      0.16526  1.0000
  O1          0.26053      0.72023      0.31302  1.0000
  O1          0.47303      0.73553      0.97923  1.0000
  O1          0.24642      0.53219      0.65690  1.0000
  O1          0.74517      0.25871      0.81362  1.0000
  O1          0.53270      0.25183      0.48003  1.0000
  O1          0.76239      0.44882      0.15798  1.0000
  O1          0.76698      0.53367      0.01606  1.0000
  O1          0.45344      0.19441      0.35772  1.0000
  O1          0.80077      0.23938      0.69539  1.0000
  O1          0.23301      0.44306      0.51523  1.0000
  O1          0.55037      0.78486      0.85571  1.0000
  O1          0.20618      0.74291      0.19526  1.0000
  O1          0.51513      0.76428      0.30786  1.0000
  O1          0.26424      0.48460      0.97308  1.0000
  O1          0.25602      0.75964      0.62475  1.0000
  O1          0.49039      0.21463      0.80749  1.0000
  O1          0.74395      0.50398      0.47341  1.0000
  O1          0.75065      0.22039      0.12515  1.0000
  O1          0.22159      0.34796      0.89247  1.0000
  O1          0.64883      0.85270      0.22697  1.0000
  O1          0.08108      0.73701      0.55928  1.0000
  O1          0.78213      0.63536      0.39238  1.0000
  O1          0.35731      0.12743      0.72596  1.0000
  O1          0.92027      0.24122      0.05787  1.0000
  O1          0.31324      0.20562      0.43138  1.0000
  O1          0.84952      0.65364      0.09744  1.0000
  O1          0.78615      0.08100      0.76602  1.0000
  O1          0.69133      0.78157      0.93023  1.0000
  O1          0.15364      0.32460      0.59682  1.0000
  O1          0.22136      0.90052      0.26663  1.0000
  O1          0.56781      0.57709      0.99151  1.0000
  O1          0.42644      0.96721      0.32725  1.0000
  O1          0.98905      0.37899      0.64414  1.0000
  O1          0.44163      0.41180      0.49174  1.0000
  O1          0.57978      0.01148      0.82609  1.0000
  O1          0.01818      0.60268      0.14345  1.0000
  O1          0.55743      0.57159      0.34255  1.0000
  O1          0.00245      0.44721      0.99821  1.0000
  O1          0.41382      0.95930      0.67955  1.0000
  O1          0.44667      0.40602      0.84457  1.0000
  O1          0.99835      0.53294      0.49877  1.0000
  O1          0.59421      0.02317      0.18140  1.0000
  O1          0.52061      0.12307      0.25338  1.0000
  O1          0.86731      0.43441      0.57864  1.0000
  O1          0.62123      0.47202      0.91809  1.0000
  O1          0.48592      0.85735      0.75148  1.0000
  O1          0.13908      0.54819      0.07710  1.0000
  O1          0.39025      0.51318      0.41674  1.0000
  F           0.41328      0.84595      0.23847  1.0000
  F           0.14996      0.54171      0.57020  1.0000
  F           0.45075      0.58782      0.90299  1.0000
  F           0.59365      0.13535      0.73800  1.0000
  F           0.85247      0.43643      0.07069  1.0000
  F           0.55448      0.39612      0.40299  1.0000
