data_cif

_audit_creation_method             'generated by GULP'

_symmetry_space_group_name_H-M     'P 1'
_symmetry_Int_Tables_number        1
_symmetry_cell_setting             triclinic

_cell_length_a                       11.9512
_cell_length_b                       11.9747
_cell_length_c                       29.5039
_cell_angle_alpha                   90.3289
_cell_angle_beta                    89.8504
_cell_angle_gamma                  119.7276

loop_
_atom_site_label
_atom_site_fract_x
_atom_site_fract_y
_atom_site_fract_z
_atom_site_occupancy
  Si          0.69960      0.37570      0.03389  1.0000
  Si          0.62575      0.33036      0.36373  1.0000
  Si          0.68518      0.31095      0.69477  1.0000
  Si          0.29674      0.62870      0.52570  1.0000
  Ge          0.38914      0.69351      0.85949  1.0000
  Si          0.33312      0.71548      0.19463  1.0000
  Si          0.38354      0.70836      0.29503  1.0000
  Ge          0.32225      0.63383      0.96212  1.0000
  Si          0.30437      0.68825      0.62604  1.0000
  Si          0.62416      0.29968      0.79495  1.0000
  Si          0.67716      0.38963      0.46411  1.0000
  Si          0.70871      0.33215      0.13433  1.0000
  Ge          0.53646      0.42603      0.96811  1.0000
  Si          0.58738      0.11766      0.29993  1.0000
  Si          0.89541      0.48581      0.63092  1.0000
  Si          0.46954      0.59060      0.46076  1.0000
  Si          0.41925      0.89354      0.78979  1.0000
  Si          0.11917      0.54487      0.13016  1.0000
  Si          0.42034      0.53490      0.35925  1.0000
  Si          0.10560      0.58989      0.02856  1.0000
  Si          0.48001      0.90165      0.68862  1.0000
  Si          0.59779      0.47525      0.86364  1.0000
  Si          0.88715      0.42848      0.52938  1.0000
  Si          0.53730      0.12214      0.19856  1.0000
  Si          0.31162      0.40813      0.84712  1.0000
  Si          0.61198      0.91566      0.18149  1.0000
  Si          0.09539      0.70706      0.51368  1.0000
  Si          0.70202      0.60662      0.34701  1.0000
  Si          0.40920      0.11207      0.67646  1.0000
  Si          0.90527      0.30579      0.01685  1.0000
  Si          0.39775      0.31138      0.47682  1.0000
  Si          0.90549      0.61188      0.14545  1.0000
  Si          0.70031      0.09637      0.80801  1.0000
  Ge          0.60366      0.71651      0.98107  1.0000
  Si          0.10461      0.41286      0.64323  1.0000
  Si          0.30651      0.90906      0.31227  1.0000
  Si          0.25115      0.34624      0.94876  1.0000
  Si          0.66459      0.91661      0.28237  1.0000
  Si          0.09573      0.76270      0.61428  1.0000
  Si          0.74929      0.66930      0.44753  1.0000
  Si          0.34463      0.09750      0.77653  1.0000
  Si          0.92058      0.26412      0.11775  1.0000
  Si          0.34351      0.25757      0.37613  1.0000
  Si          0.89789      0.66071      0.04475  1.0000
  Si          0.75683      0.10062      0.70717  1.0000
  Ge          0.67528      0.76079      0.87859  1.0000
  Si          0.08893      0.35014      0.54269  1.0000
  Si          0.25877      0.92200      0.21184  1.0000
  Si          0.97162      0.12618      0.96338  1.0000
  Si          0.88262      0.85441      0.29774  1.0000
  Si          0.15954      0.04373      0.62841  1.0000
  Si          0.02840      0.88759      0.46302  1.0000
  Si          0.13088      0.16292      0.79465  1.0000
  Si          0.86339      0.98747      0.13198  1.0000
  Si          0.12606      0.97771      0.36250  1.0000
  Si          0.85257      0.89278      0.03133  1.0000
  Si          0.03824      0.16666      0.69397  1.0000
  Si          0.88844      0.03854      0.86059  1.0000
  Si          0.15007      0.13171      0.52783  1.0000
  Si          0.97914      0.86107      0.19698  1.0000
  O2          0.93735      0.00699      0.99609  1.0000
  O2          0.00296      0.93413      0.33070  1.0000
  O2          0.08440      0.08720      0.66289  1.0000
  O2          0.06929      0.00858      0.49599  1.0000
  O2          0.01753      0.09644      0.83079  1.0000
  O2          0.93981      0.94466      0.16567  1.0000
  O2          0.34445      0.58299      0.32622  1.0000
  O2          0.43239      0.77672      0.65601  1.0000
  O3          0.22253      0.66847      0.99553  1.0000
  O2          0.66456      0.41838      0.82994  1.0000
  O2          0.58797      0.24988      0.16783  1.0000
  O2          0.75999      0.35188      0.49792  1.0000
  O3          0.57573      0.33324      0.00239  1.0000
  O2          0.77179      0.43743      0.66422  1.0000
  O2          0.66430      0.24216      0.33270  1.0000
  O2          0.41778      0.66710      0.49212  1.0000
  O2          0.24791      0.59541      0.16084  1.0000
  O3          0.34087      0.76985      0.82014  1.0000
  O2          0.12549      0.21675      0.96601  1.0000
  O2          0.78971      0.91570      0.30306  1.0000
  O2          0.09783      0.89022      0.63440  1.0000
  O2          0.87395      0.79757      0.46721  1.0000
  O2          0.21495      0.09149      0.79639  1.0000
  O2          0.92477      0.14103      0.13849  1.0000
  O2          0.21813      0.13088      0.35606  1.0000
  O2          0.89472      0.78370      0.02387  1.0000
  O2          0.88458      0.10302      0.68704  1.0000
  O3          0.81519      0.88807      0.85432  1.0000
  O2          0.08581      0.22199      0.52270  1.0000
  O2          0.13307      0.92298      0.19178  1.0000
  O2          0.93852      0.87083      0.24767  1.0000
  O2          0.13887      0.08062      0.57845  1.0000
  O2          0.92664      0.07747      0.91275  1.0000
  O2          0.07137      0.15473      0.74555  1.0000
  O2          0.88663      0.95292      0.08172  1.0000
  O2          0.07366      0.94240      0.41317  1.0000
  O2          0.90252      0.20711      0.97841  1.0000
  O2          0.80165      0.70265      0.30902  1.0000
  O2          0.31274      0.11404      0.63800  1.0000
  O2          0.09569      0.80378      0.47536  1.0000
  O2          0.22376      0.31162      0.80728  1.0000
  O2          0.71056      0.91760      0.14294  1.0000
  O2          0.20723      0.90637      0.35069  1.0000
  O3          0.70336      0.82698      0.02314  1.0000
  O2          0.10817      0.31761      0.68161  1.0000
  O2          0.79545      0.09598      0.84686  1.0000
  O2          0.30086      0.21411      0.51505  1.0000
  O2          0.90760      0.71079      0.18366  1.0000
  O2          0.32981      0.65429      0.24421  1.0000
  O2          0.35761      0.68592      0.57543  1.0000
  O1          0.31057      0.68700      0.90900  1.0000
  O2          0.68362      0.36361      0.74576  1.0000
  O2          0.64558      0.32436      0.08472  1.0000
  O2          0.68103      0.33177      0.41432  1.0000
  O3          0.37085      0.32849      0.96159  1.0000
  O2          0.67432      0.04793      0.30193  1.0000
  O2          0.96438      0.64189      0.63369  1.0000
  O2          0.62534      0.67893      0.46471  1.0000
  O2          0.33392      0.96493      0.79350  1.0000
  O2          0.05210      0.38944      0.13438  1.0000
  O2          0.33361      0.37891      0.35675  1.0000
  O2          0.02969      0.67099      0.02619  1.0000
  O2          0.63642      0.97063      0.68672  1.0000
  O3          0.67724      0.62739      0.85649  1.0000
  O2          0.95535      0.34023      0.52580  1.0000
  O2          0.38139      0.05479      0.19460  1.0000
  O2          0.76897      0.30217      0.01059  1.0000
  O2          0.70189      0.47201      0.34059  1.0000
  O2          0.54371      0.24587      0.67093  1.0000
  O2          0.22738      0.70397      0.50456  1.0000
  O3          0.32461      0.54191      0.83446  1.0000
  O2          0.47717      0.78342      0.17276  1.0000
  O2          0.30695      0.77481      0.31816  1.0000
  O1          0.46894      0.73075      0.98750  1.0000
  O2          0.23885      0.54700      0.64954  1.0000
  O2          0.69652      0.22826      0.81671  1.0000
  O2          0.53292      0.31430      0.48553  1.0000
  O2          0.77607      0.47666      0.15561  1.0000
  O2          0.77171      0.53227      0.02591  1.0000
  O2          0.47001      0.25614      0.35779  1.0000
  O2          0.75951      0.22903      0.68936  1.0000
  O2          0.21352      0.47295      0.52156  1.0000
  O1          0.55376      0.78107      0.85733  1.0000
  O2          0.25861      0.79734      0.19084  1.0000
  O2          0.53911      0.78955      0.30077  1.0000
  O3          0.25846      0.46956      0.97233  1.0000
  O2          0.22313      0.76323      0.63250  1.0000
  O2          0.46765      0.22269      0.79801  1.0000
  O2          0.75045      0.54553      0.46835  1.0000
  O2          0.79449      0.26178      0.13850  1.0000
  O2          0.23542      0.35366      0.89435  1.0000
  O2          0.68395      0.91677      0.22808  1.0000
  O2          0.09404      0.77940      0.56004  1.0000
  O2          0.77012      0.68326      0.39332  1.0000
  O2          0.33101      0.10491      0.72232  1.0000
  O2          0.91552      0.24098      0.06358  1.0000
  O2          0.32485      0.24034      0.43038  1.0000
  O2          0.89810      0.67964      0.09914  1.0000
  O2          0.77210      0.09584      0.76141  1.0000
  O1          0.70483      0.78710      0.93527  1.0000
  O2          0.09640      0.33602      0.59690  1.0000
  O2          0.23805      0.91721      0.26609  1.0000
  O1          0.57681      0.56636      0.99560  1.0000
  O2          0.44578      0.03251      0.32244  1.0000
  O2          0.98061      0.42888      0.65328  1.0000
  O2          0.41112      0.45085      0.48464  1.0000
  O2          0.55980      0.97180      0.81454  1.0000
  O2          0.03425      0.60230      0.15263  1.0000
  O2          0.56238      0.59108      0.33695  1.0000
  O2          0.02682      0.44571      0.00643  1.0000
  O2          0.42507      0.98824      0.66611  1.0000
  O2          0.44914      0.41487      0.84838  1.0000
  O2          0.96928      0.56837      0.50584  1.0000
  O2          0.59649      0.04069      0.17432  1.0000
  O2          0.58801      0.17255      0.24965  1.0000
  O2          0.83822      0.43114      0.58064  1.0000
  O3          0.60972      0.44284      0.91549  1.0000
  O2          0.42397      0.84573      0.73851  1.0000
  O2          0.16435      0.59294      0.07877  1.0000
  O2          0.41838      0.58937      0.40969  1.0000
  F           0.45804      0.91199      0.24685  1.0000
  F           0.09954      0.55974      0.57853  1.0000
  F           0.47207      0.59576      0.91825  1.0000
  F           0.55336      0.10662      0.74216  1.0000
  F           0.89932      0.45760      0.08017  1.0000
  F           0.55036      0.45977      0.41196  1.0000
