data_cif

_audit_creation_method             'generated by GULP'

_symmetry_space_group_name_H-M     'P 1'
_symmetry_Int_Tables_number        1
_symmetry_cell_setting             triclinic

_cell_length_a                       12.0147
_cell_length_b                       11.9580
_cell_length_c                       29.5348
_cell_angle_alpha                   90.0127
_cell_angle_beta                    90.0773
_cell_angle_gamma                  120.1247

loop_
_atom_site_label
_atom_site_fract_x
_atom_site_fract_y
_atom_site_fract_z
_atom_site_occupancy
  Si          0.69960      0.37570      0.03389  1.0000
  Si          0.61483      0.32151      0.36478  1.0000
  Ge          0.67725      0.29832      0.69888  1.0000
  Si          0.29290      0.61637      0.53051  1.0000
  Si          0.36980      0.67256      0.87014  1.0000
  Si          0.31888      0.70026      0.20010  1.0000
  Si          0.37464      0.70199      0.30039  1.0000
  Si          0.31861      0.61882      0.97047  1.0000
  Si          0.28727      0.66524      0.63055  1.0000
  Ge          0.61650      0.30188      0.80043  1.0000
  Si          0.67010      0.37587      0.46504  1.0000
  Si          0.69832      0.32057      0.13422  1.0000
  Si          0.52711      0.41708      0.97037  1.0000
  Si          0.57736      0.11086      0.30020  1.0000
  Si          0.88082      0.46997      0.63009  1.0000
  Si          0.46711      0.58065      0.46638  1.0000
  Si          0.40368      0.87814      0.80397  1.0000
  Si          0.10752      0.52756      0.13569  1.0000
  Si          0.41297      0.52954      0.36499  1.0000
  Si          0.10778      0.58032      0.03435  1.0000
  Ge          0.45508      0.87392      0.69951  1.0000
  Si          0.57749      0.47291      0.86907  1.0000
  Si          0.88272      0.41532      0.52856  1.0000
  Si          0.52498      0.11018      0.19878  1.0000
  Si          0.29515      0.39366      0.85498  1.0000
  Si          0.59665      0.90088      0.18508  1.0000
  Si          0.09536      0.69669      0.51544  1.0000
  Si          0.69262      0.60056      0.35074  1.0000
  Si          0.39377      0.09671      0.68305  1.0000
  Si          0.90004      0.29848      0.01909  1.0000
  Si          0.39342      0.29900      0.48055  1.0000
  Si          0.89918      0.59914      0.14946  1.0000
  Ge          0.69524      0.09689      0.81753  1.0000
  Si          0.59649      0.69798      0.98469  1.0000
  Si          0.08239      0.38885      0.64588  1.0000
  Si          0.29712      0.90264      0.31480  1.0000
  Si          0.24847      0.33827      0.95577  1.0000
  Si          0.65545      0.91007      0.28559  1.0000
  Si          0.08883      0.74840      0.61582  1.0000
  Si          0.74478      0.65819      0.45120  1.0000
  Si          0.32892      0.08429      0.78507  1.0000
  Si          0.90630      0.24855      0.11979  1.0000
  Si          0.33511      0.25003      0.37999  1.0000
  Si          0.90721      0.65756      0.04904  1.0000
  Ge          0.74614      0.08156      0.71537  1.0000
  Si          0.65217      0.75175      0.88436  1.0000
  Si          0.08109      0.33495      0.54500  1.0000
  Si          0.24654      0.90929      0.21426  1.0000
  Si          0.97091      0.11910      0.96959  1.0000
  Si          0.87347      0.84877      0.30045  1.0000
  Si          0.14844      0.02790      0.63215  1.0000
  Si          0.02530      0.87583      0.46591  1.0000
  Si          0.11313      0.14740      0.80121  1.0000
  Si          0.84478      0.96865      0.13532  1.0000
  Si          0.11695      0.97016      0.36524  1.0000
  Si          0.84553      0.87583      0.03475  1.0000
  Si          0.02440      0.14373      0.69872  1.0000
  Si          0.87675      0.03016      0.86920  1.0000
  Si          0.14573      0.11919      0.53128  1.0000
  Si          0.96715      0.84759      0.20000  1.0000
  O2          0.92616      0.99783      0.00255  1.0000
  O2          0.99439      0.92808      0.33333  1.0000
  O2          0.07833      0.07095      0.66796  1.0000
  O2          0.06654      0.99533      0.49959  1.0000
  O2          0.99107      0.06583      0.83325  1.0000
  O2          0.92464      0.92788      0.16812  1.0000
  O2          0.33630      0.57873      0.33307  1.0000
  O3          0.40597      0.74233      0.66439  1.0000
  O2          0.23413      0.65765      0.00273  1.0000
  O3          0.65446      0.43175      0.83639  1.0000
  O2          0.57457      0.23575      0.16642  1.0000
  O2          0.75688      0.33785      0.49659  1.0000
  O2          0.57635      0.33893      0.00171  1.0000
  O3          0.75776      0.42627      0.66048  1.0000
  O2          0.65370      0.23745      0.33223  1.0000
  O2          0.41707      0.65594      0.49871  1.0000
  O2          0.23293      0.57608      0.16794  1.0000
  O2          0.32731      0.75521      0.83782  1.0000
  O2          0.12412      0.21166      0.97659  1.0000
  O2          0.78254      0.91184      0.30542  1.0000
  O2          0.08670      0.87347      0.63602  1.0000
  O2          0.87148      0.78420      0.47128  1.0000
  O2          0.19876      0.07782      0.80337  1.0000
  O2          0.90704      0.12302      0.14028  1.0000
  O2          0.20823      0.12456      0.35976  1.0000
  O2          0.90711      0.78374      0.02893  1.0000
  O3          0.87433      0.06817      0.69249  1.0000
  O2          0.77743      0.87598      0.86334  1.0000
  O2          0.08169      0.20898      0.52484  1.0000
  O2          0.12084      0.90998      0.19434  1.0000
  O2          0.92845      0.86161      0.25047  1.0000
  O2          0.13216      0.07071      0.58246  1.0000
  O2          0.93953      0.06497      0.91895  1.0000
  O2          0.06825      0.14575      0.75024  1.0000
  O2          0.85968      0.92820      0.08528  1.0000
  O2          0.06499      0.93148      0.41583  1.0000
  O2          0.90014      0.20103      0.98059  1.0000
  O2          0.79045      0.69693      0.31242  1.0000
  O2          0.29938      0.09666      0.64383  1.0000
  O2          0.09560      0.79416      0.47706  1.0000
  O2          0.19768      0.29689      0.81648  1.0000
  O2          0.69326      0.89873      0.14708  1.0000
  O2          0.19864      0.90071      0.35294  1.0000
  O2          0.69397      0.79550      0.02304  1.0000
  O2          0.08241      0.29424      0.68492  1.0000
  O3          0.79794      0.10086      0.86101  1.0000
  O2          0.29692      0.20111      0.51901  1.0000
  O2          0.89721      0.69568      0.18783  1.0000
  O2          0.31791      0.64323      0.25035  1.0000
  O2          0.34956      0.67156      0.58084  1.0000
  O2          0.31380      0.67320      0.92027  1.0000
  O1          0.69431      0.37255      0.75055  1.0000
  O2          0.64159      0.31891      0.08392  1.0000
  O2          0.67031      0.31916      0.41494  1.0000
  O2          0.37121      0.32874      0.97339  1.0000
  O2          0.66507      0.04273      0.30368  1.0000
  O2          0.95547      0.62721      0.63305  1.0000
  O2          0.62309      0.66844      0.46980  1.0000
  O2          0.33444      0.96479      0.80867  1.0000
  O2          0.03834      0.37095      0.13839  1.0000
  O2          0.32529      0.37293      0.36216  1.0000
  O2          0.03961      0.66812      0.03104  1.0000
  O1          0.61705      0.93282      0.70334  1.0000
  O2          0.66081      0.62957      0.86596  1.0000
  O2          0.95153      0.32805      0.52570  1.0000
  O2          0.36907      0.04156      0.19585  1.0000
  O2          0.76690      0.29982      0.01146  1.0000
  O2          0.69080      0.46567      0.34300  1.0000
  O3          0.51792      0.23610      0.68113  1.0000
  O2          0.22676      0.69281      0.50764  1.0000
  O2          0.29737      0.52927      0.84724  1.0000
  O2          0.46179      0.76723      0.17778  1.0000
  O2          0.29891      0.76943      0.32261  1.0000
  O2          0.46206      0.69606      0.99256  1.0000
  O2          0.21709      0.52209      0.65313  1.0000
  O1          0.68591      0.23018      0.83093  1.0000
  O2          0.52777      0.30003      0.48797  1.0000
  O2          0.76584      0.46414      0.15670  1.0000
  O2          0.78166      0.53204      0.02911  1.0000
  O2          0.45921      0.24857      0.36001  1.0000
  O1          0.74938      0.20854      0.68732  1.0000
  O2          0.20903      0.45997      0.52626  1.0000
  O2          0.52566      0.75184      0.86552  1.0000
  O2          0.24544      0.78259      0.19496  1.0000
  O2          0.53049      0.78377      0.30541  1.0000
  O2          0.24644      0.46273      0.97580  1.0000
  O2          0.21468      0.75003      0.63696  1.0000
  O3          0.44854      0.21872      0.79930  1.0000
  O2          0.74529      0.53226      0.47050  1.0000
  O2          0.77991      0.24650      0.13928  1.0000
  O2          0.22599      0.32057      0.90158  1.0000
  O2          0.67151      0.90660      0.23142  1.0000
  O2          0.09497      0.76976      0.56159  1.0000
  O2          0.76312      0.67558      0.39701  1.0000
  O2          0.31608      0.06578      0.73067  1.0000
  O2          0.90387      0.22855      0.06557  1.0000
  O2          0.31866      0.22925      0.43420  1.0000
  O2          0.90456      0.67449      0.10325  1.0000
  O1          0.78669      0.10452      0.77175  1.0000
  O2          0.67007      0.77083      0.93864  1.0000
  O2          0.07698      0.31502      0.59916  1.0000
  O2          0.22752      0.90728      0.26846  1.0000
  O2          0.58343      0.55864      0.99338  1.0000
  O2          0.43663      0.02811      0.32354  1.0000
  O2          0.96021      0.40797      0.65416  1.0000
  O2          0.40873      0.43904      0.48949  1.0000
  O3          0.54905      0.95438      0.82122  1.0000
  O2          0.02389      0.58494      0.15868  1.0000
  O2          0.55366      0.58642      0.34198  1.0000
  O2          0.02455      0.43908      0.01086  1.0000
  O3          0.42960      0.98758      0.67250  1.0000
  O2          0.43406      0.40797      0.84655  1.0000
  O2          0.96930      0.55760      0.50657  1.0000
  O2          0.58186      0.02574      0.17600  1.0000
  O2          0.57786      0.16377      0.24948  1.0000
  O2          0.83141      0.41663      0.57902  1.0000
  O2          0.57911      0.41896      0.91962  1.0000
  O3          0.38636      0.82633      0.75275  1.0000
  O2          0.16048      0.58077      0.08510  1.0000
  O2          0.41440      0.58235      0.41583  1.0000
  F           0.44725      0.90199      0.25023  1.0000
  F           0.09636      0.55042      0.58170  1.0000
  F           0.44557      0.54765      0.91995  1.0000
  F           0.58013      0.12044      0.75218  1.0000
  F           0.89956      0.44931      0.08453  1.0000
  F           0.54346      0.45026      0.41601  1.0000
