data_cif

_audit_creation_method             'generated by GULP'

_symmetry_space_group_name_H-M     'P 1'
_symmetry_Int_Tables_number        1
_symmetry_cell_setting             triclinic

_cell_length_a                       11.9538
_cell_length_b                       11.9787
_cell_length_c                       29.5099
_cell_angle_alpha                   89.9998
_cell_angle_beta                    89.9952
_cell_angle_gamma                  119.8335

loop_
_atom_site_label
_atom_site_fract_x
_atom_site_fract_y
_atom_site_fract_z
_atom_site_occupancy
  Si          0.69960      0.37570      0.03389  1.0000
  Ge          0.61335      0.30453      0.36762  1.0000
  Si          0.66940      0.28937      0.70150  1.0000
  Si          0.29761      0.61807      0.53736  1.0000
  Si          0.37492      0.67009      0.86730  1.0000
  Si          0.31978      0.70010      0.19807  1.0000
  Si          0.36643      0.69683      0.29882  1.0000
  Si          0.32006      0.61585      0.96767  1.0000
  Si          0.29358      0.66894      0.63793  1.0000
  Si          0.61553      0.29102      0.80200  1.0000
  Si          0.67832      0.36953      0.46977  1.0000
  Si          0.70281      0.32298      0.13434  1.0000
  Si          0.52687      0.41264      0.96870  1.0000
  Si          0.58522      0.10165      0.30013  1.0000
  Si          0.88260      0.46181      0.63758  1.0000
  Si          0.46743      0.58384      0.47060  1.0000
  Si          0.41242      0.88102      0.80302  1.0000
  Si          0.11024      0.52646      0.13349  1.0000
  Ge          0.40710      0.52762      0.36614  1.0000
  Si          0.10915      0.57828      0.03209  1.0000
  Si          0.46522      0.88102      0.70162  1.0000
  Si          0.57894      0.46413      0.86708  1.0000
  Si          0.89078      0.41566      0.53627  1.0000
  Si          0.53369      0.10988      0.19889  1.0000
  Si          0.29806      0.39245      0.85284  1.0000
  Si          0.59919      0.89608      0.18447  1.0000
  Si          0.09624      0.69628      0.52271  1.0000
  Ge          0.69593      0.59286      0.34952  1.0000
  Si          0.39157      0.08842      0.68649  1.0000
  Si          0.90050      0.29814      0.01851  1.0000
  Ge          0.39427      0.29434      0.48590  1.0000
  Si          0.90306      0.60092      0.14870  1.0000
  Si          0.69288      0.08992      0.81692  1.0000
  Si          0.59829      0.69312      0.98252  1.0000
  Si          0.09300      0.39108      0.65160  1.0000
  Si          0.29963      0.90544      0.31455  1.0000
  Si          0.24778      0.33502      0.95340  1.0000
  Si          0.65166      0.89247      0.28489  1.0000
  Si          0.08387      0.74053      0.62350  1.0000
  Si          0.74812      0.65698      0.45246  1.0000
  Si          0.33493      0.08211      0.78721  1.0000
  Si          0.90999      0.24825      0.11899  1.0000
  Ge          0.33341      0.24634      0.38358  1.0000
  Si          0.90814      0.65621      0.04795  1.0000
  Si          0.74327      0.08199      0.71644  1.0000
  Si          0.65625      0.74262      0.88194  1.0000
  Si          0.09075      0.33591      0.55098  1.0000
  Si          0.25311      0.91285      0.21345  1.0000
  Si          0.96778      0.11736      0.96809  1.0000
  Si          0.87781      0.83888      0.29882  1.0000
  Si          0.14125      0.01770      0.63712  1.0000
  Si          0.02799      0.87293      0.46949  1.0000
  Si          0.11714      0.14436      0.80277  1.0000
  Si          0.84798      0.96829      0.13346  1.0000
  Si          0.11373      0.96536      0.36725  1.0000
  Si          0.84628      0.87407      0.03275  1.0000
  Si          0.02310      0.14305      0.70209  1.0000
  Si          0.87358      0.02245      0.86753  1.0000
  Si          0.14557      0.11143      0.53675  1.0000
  Si          0.97427      0.85127      0.19834  1.0000
  O2          0.92633      0.99552      0.00033  1.0000
  O2          0.98882      0.91237      0.33540  1.0000
  O2          0.06436      0.06182      0.67014  1.0000
  O2          0.06709      0.99658      0.50092  1.0000
  O2          0.99609      0.06456      0.83543  1.0000
  O2          0.93074      0.92869      0.16540  1.0000
  O3          0.32163      0.57848      0.33247  1.0000
  O2          0.41687      0.75411      0.67019  1.0000
  O2          0.23461      0.65467      0.99979  1.0000
  O2          0.65460      0.41410      0.83461  1.0000
  O2          0.58160      0.23690      0.16746  1.0000
  O2          0.76836      0.34084      0.50302  1.0000
  O2          0.57600      0.33677      0.00138  1.0000
  O2          0.75531      0.41234      0.66901  1.0000
  O3          0.66443      0.21986      0.33317  1.0000
  O2          0.42238      0.66060      0.50507  1.0000
  O2          0.23644      0.57731      0.16538  1.0000
  O2          0.33605      0.75531      0.83507  1.0000
  O2          0.12193      0.20860      0.97336  1.0000
  O2          0.77353      0.88659      0.30593  1.0000
  O2          0.08142      0.86467      0.64433  1.0000
  O2          0.87399      0.77713      0.47508  1.0000
  O2          0.20851      0.08134      0.80757  1.0000
  O2          0.90983      0.12201      0.13895  1.0000
  O3          0.18858      0.11467      0.36263  1.0000
  O2          0.90890      0.78245      0.02759  1.0000
  O2          0.86930      0.08153      0.69628  1.0000
  O2          0.78285      0.86856      0.86206  1.0000
  O2          0.09053      0.21055      0.53031  1.0000
  O2          0.12827      0.91437      0.19242  1.0000
  O2          0.93870      0.87021      0.24889  1.0000
  O2          0.11761      0.04924      0.58656  1.0000
  O2          0.92682      0.06328      0.91785  1.0000
  O2          0.06205      0.13047      0.75266  1.0000
  O2          0.86010      0.92846      0.08294  1.0000
  O2          0.06383      0.91517      0.41807  1.0000
  O2          0.89814      0.19947      0.98021  1.0000
  O3          0.80516      0.68855      0.30788  1.0000
  O2          0.29427      0.08892      0.64791  1.0000
  O2          0.10074      0.79562      0.48445  1.0000
  O2          0.19954      0.29569      0.81467  1.0000
  O2          0.69689      0.89652      0.14607  1.0000
  O2          0.20537      0.90584      0.35367  1.0000
  O2          0.69470      0.79197      0.02067  1.0000
  O2          0.09413      0.29419      0.68979  1.0000
  O2          0.79119      0.09171      0.85528  1.0000
  O3          0.29659      0.19151      0.52937  1.0000
  O2          0.90411      0.69898      0.18707  1.0000
  O2          0.31534      0.64050      0.24802  1.0000
  O2          0.35261      0.67311      0.58777  1.0000
  O2          0.31853      0.67157      0.91743  1.0000
  O2          0.67065      0.34757      0.75158  1.0000
  O2          0.64320      0.32093      0.08437  1.0000
  O3          0.66044      0.29461      0.42305  1.0000
  O2          0.37063      0.32528      0.97164  1.0000
  O2          0.66769      0.02735      0.30231  1.0000
  O2          0.95042      0.61767      0.64052  1.0000
  O2          0.62364      0.65462      0.47513  1.0000
  O2          0.32504      0.95012      0.80577  1.0000
  O2          0.04266      0.37062      0.13697  1.0000
  O1          0.30212      0.36541      0.36676  1.0000
  O2          0.04020      0.66575      0.02933  1.0000
  O2          0.62136      0.94966      0.69820  1.0000
  O2          0.66638      0.62007      0.86378  1.0000
  O2          0.96036      0.32922      0.53192  1.0000
  O2          0.37763      0.04245      0.19507  1.0000
  O2          0.76671      0.29932      0.01154  1.0000
  O1          0.70838      0.45797      0.34749  1.0000
  O2          0.52619      0.22173      0.67890  1.0000
  O2          0.22800      0.69180      0.51487  1.0000
  O2          0.29938      0.52701      0.84498  1.0000
  O2          0.46272      0.76668      0.17532  1.0000
  O2          0.29400      0.76874      0.32026  1.0000
  O2          0.46335      0.69172      0.98997  1.0000
  O2          0.22646      0.52499      0.65943  1.0000
  O2          0.69142      0.22319      0.82416  1.0000
  O3          0.54387      0.31146      0.49632  1.0000
  O2          0.76981      0.46638      0.15659  1.0000
  O2          0.78134      0.53132      0.02870  1.0000
  O1          0.45140      0.22959      0.35611  1.0000
  O2          0.74423      0.20799      0.69665  1.0000
  O2          0.21830      0.46208      0.53256  1.0000
  O2          0.53098      0.74380      0.86219  1.0000
  O2          0.24784      0.78434      0.19412  1.0000
  O2          0.52375      0.76969      0.30530  1.0000
  O2          0.24653      0.46017      0.97292  1.0000
  O2          0.20914      0.74031      0.64359  1.0000
  O2          0.45961      0.20863      0.80670  1.0000
  O2          0.74676      0.52407      0.46252  1.0000
  O2          0.78470      0.24866      0.13890  1.0000
  O2          0.22816      0.31811      0.89917  1.0000
  O2          0.66923      0.88950      0.23057  1.0000
  O2          0.09153      0.76474      0.56939  1.0000
  O3          0.75268      0.68134      0.39943  1.0000
  O2          0.31730      0.08416      0.73292  1.0000
  O2          0.90707      0.22891      0.06474  1.0000
  O1          0.31219      0.20388      0.44037  1.0000
  O2          0.90635      0.67425      0.10219  1.0000
  O2          0.76287      0.08457      0.77067  1.0000
  O2          0.67303      0.76230      0.93615  1.0000
  O2          0.08971      0.31709      0.60525  1.0000
  O2          0.23414      0.91502      0.26759  1.0000
  O2          0.58411      0.55388      0.99153  1.0000
  O2          0.44292      0.02387      0.32354  1.0000
  O2          0.96750      0.40528      0.66057  1.0000
  O3          0.39964      0.44017      0.48999  1.0000
  O2          0.55360      0.96527      0.82600  1.0000
  O2          0.02749      0.58482      0.15694  1.0000
  O1          0.54615      0.56615      0.33670  1.0000
  O2          0.02495      0.43728      0.00911  1.0000
  O2          0.40688      0.96361      0.67793  1.0000
  O2          0.43757      0.40635      0.84405  1.0000
  O2          0.96928      0.55830      0.51393  1.0000
  O2          0.59127      0.02534      0.17646  1.0000
  O2          0.58541      0.15911      0.24988  1.0000
  O2          0.83236      0.40988      0.58653  1.0000
  O2          0.57981      0.41202      0.91793  1.0000
  O2          0.41260      0.82829      0.75232  1.0000
  O2          0.16271      0.57828      0.08267  1.0000
  O3          0.42769      0.59707      0.41991  1.0000
  F           0.45140      0.89684      0.24922  1.0000
  F           0.09271      0.54154      0.58674  1.0000
  F           0.44830      0.54262      0.91751  1.0000
  F           0.54251      0.08902      0.75148  1.0000
  F           0.90153      0.44897      0.08353  1.0000
  F           0.51406      0.41626      0.41111  1.0000
