data_cif

_audit_creation_method             'generated by GULP'

_symmetry_space_group_name_H-M     'P 1'
_symmetry_Int_Tables_number        1
_symmetry_cell_setting             triclinic

_cell_length_a                       11.9431
_cell_length_b                       11.9769
_cell_length_c                       29.5455
_cell_angle_alpha                   90.0529
_cell_angle_beta                    90.1073
_cell_angle_gamma                  119.7376

loop_
_atom_site_label
_atom_site_fract_x
_atom_site_fract_y
_atom_site_fract_z
_atom_site_occupancy
  Si          0.69960      0.37570      0.03389  1.0000
  Ge          0.61631      0.30523      0.36701  1.0000
  Si          0.66751      0.28822      0.70202  1.0000
  Si          0.29511      0.61728      0.53887  1.0000
  Si          0.37387      0.66945      0.86751  1.0000
  Si          0.32159      0.70189      0.19709  1.0000
  Si          0.36774      0.69395      0.29823  1.0000
  Si          0.31974      0.61571      0.96764  1.0000
  Si          0.28910      0.66765      0.63946  1.0000
  Si          0.61452      0.29077      0.80241  1.0000
  Si          0.67368      0.36980      0.46987  1.0000
  Si          0.70376      0.32364      0.13427  1.0000
  Si          0.52677      0.41290      0.96873  1.0000
  Si          0.58522      0.10048      0.29946  1.0000
  Si          0.87871      0.46093      0.63791  1.0000
  Ge          0.46162      0.57649      0.46948  1.0000
  Si          0.41123      0.88080      0.80386  1.0000
  Si          0.11141      0.52715      0.13286  1.0000
  Ge          0.40919      0.52543      0.36563  1.0000
  Si          0.10875      0.57795      0.03166  1.0000
  Si          0.46311      0.88000      0.70266  1.0000
  Si          0.57783      0.46402      0.86727  1.0000
  Si          0.88593      0.41407      0.53673  1.0000
  Si          0.53487      0.11164      0.19892  1.0000
  Si          0.29656      0.39185      0.85284  1.0000
  Si          0.60116      0.89869      0.18400  1.0000
  Si          0.09240      0.69370      0.52350  1.0000
  Ge          0.69381      0.59330      0.34951  1.0000
  Si          0.38962      0.08730      0.68733  1.0000
  Si          0.90047      0.29796      0.01824  1.0000
  Si          0.38921      0.28925      0.48588  1.0000
  Si          0.90423      0.60166      0.14831  1.0000
  Si          0.69166      0.08951      0.81745  1.0000
  Si          0.59823      0.69348      0.98252  1.0000
  Si          0.08896      0.38987      0.65195  1.0000
  Si          0.30141      0.90421      0.31390  1.0000
  Si          0.24738      0.33496      0.95333  1.0000
  Si          0.65322      0.89293      0.28440  1.0000
  Si          0.07935      0.73937      0.62401  1.0000
  Si          0.74699      0.65791      0.45212  1.0000
  Si          0.33382      0.08190      0.78786  1.0000
  Si          0.91135      0.24913      0.11862  1.0000
  Ge          0.32892      0.24451      0.38296  1.0000
  Si          0.90791      0.65614      0.04771  1.0000
  Si          0.74130      0.08055      0.71708  1.0000
  Si          0.65554      0.74256      0.88204  1.0000
  Si          0.08752      0.33505      0.55126  1.0000
  Si          0.25489      0.91457      0.21318  1.0000
  Si          0.96790      0.11712      0.96794  1.0000
  Si          0.87798      0.83678      0.29858  1.0000
  Si          0.14078      0.01832      0.63666  1.0000
  Si          0.02813      0.87136      0.46944  1.0000
  Si          0.11577      0.14387      0.80259  1.0000
  Si          0.84956      0.96948      0.13323  1.0000
  Si          0.11357      0.96056      0.36724  1.0000
  Si          0.84660      0.87446      0.03261  1.0000
  Si          0.02116      0.14202      0.70188  1.0000
  Si          0.87295      0.02200      0.86751  1.0000
  Si          0.14379      0.11130      0.53574  1.0000
  Si          0.97544      0.85185      0.19824  1.0000
  O2          0.92642      0.99552      0.00018  1.0000
  O2          0.98957      0.90997      0.33530  1.0000
  O2          0.06212      0.06329      0.66843  1.0000
  O2          0.06515      0.99613      0.50028  1.0000
  O2          0.99382      0.06404      0.83469  1.0000
  O2          0.93141      0.92943      0.16552  1.0000
  O3          0.32262      0.57358      0.32982  1.0000
  O2          0.41278      0.75219      0.67164  1.0000
  O2          0.23404      0.65455      0.99954  1.0000
  O2          0.65369      0.41408      0.83486  1.0000
  O2          0.58306      0.23853      0.16750  1.0000
  O2          0.76023      0.33945      0.50428  1.0000
  O2          0.57577      0.33690      0.00141  1.0000
  O2          0.75185      0.41088      0.66944  1.0000
  O3          0.66437      0.21841      0.33328  1.0000
  O3          0.41855      0.65854      0.50833  1.0000
  O2          0.23857      0.57908      0.16440  1.0000
  O2          0.33471      0.75510      0.83564  1.0000
  O2          0.12197      0.20868      0.97333  1.0000
  O2          0.77525      0.88691      0.30540  1.0000
  O2          0.07796      0.86510      0.64392  1.0000
  O2          0.87513      0.77634      0.47453  1.0000
  O2          0.20758      0.08143      0.80821  1.0000
  O2          0.91189      0.12324      0.13855  1.0000
  O3          0.18711      0.11094      0.36370  1.0000
  O2          0.90859      0.78222      0.02731  1.0000
  O2          0.86693      0.07923      0.69692  1.0000
  O2          0.78204      0.86818      0.86218  1.0000
  O2          0.08582      0.20777      0.53117  1.0000
  O2          0.12950      0.91578      0.19234  1.0000
  O2          0.93961      0.86920      0.24885  1.0000
  O2          0.12450      0.05208      0.58550  1.0000
  O2          0.92801      0.06299      0.91764  1.0000
  O2          0.06301      0.12907      0.75200  1.0000
  O2          0.86150      0.92898      0.08281  1.0000
  O2          0.06656      0.91269      0.41816  1.0000
  O2          0.89776      0.19897      0.97996  1.0000
  O3          0.80562      0.68737      0.30795  1.0000
  O2          0.29266      0.08809      0.64869  1.0000
  O2          0.10028      0.79443      0.48531  1.0000
  O2          0.19751      0.29514      0.81466  1.0000
  O2          0.69849      0.89884      0.14562  1.0000
  O2          0.20723      0.90423      0.35322  1.0000
  O2          0.69485      0.79269      0.02061  1.0000
  O2          0.09006      0.29303      0.69007  1.0000
  O2          0.79014      0.09134      0.85580  1.0000
  O2          0.29639      0.19028      0.52512  1.0000
  O2          0.90571      0.69988      0.18666  1.0000
  O2          0.31822      0.64358      0.24681  1.0000
  O2          0.34742      0.67073      0.58965  1.0000
  O2          0.31770      0.67119      0.91752  1.0000
  O2          0.66927      0.34669      0.75204  1.0000
  O2          0.64382      0.32134      0.08433  1.0000
  O3          0.65653      0.29531      0.42324  1.0000
  O2          0.37059      0.32554      0.97152  1.0000
  O2          0.66922      0.02788      0.30219  1.0000
  O2          0.94611      0.61676      0.64113  1.0000
  O3          0.62838      0.65950      0.47602  1.0000
  O2          0.32393      0.95013      0.80653  1.0000
  O2          0.04416      0.37150      0.13654  1.0000
  O1          0.29903      0.36246      0.36543  1.0000
  O2          0.03969      0.66542      0.02897  1.0000
  O2          0.61917      0.94822      0.69889  1.0000
  O2          0.66534      0.61975      0.86394  1.0000
  O2          0.95611      0.32776      0.53216  1.0000
  O2          0.37868      0.04513      0.19513  1.0000
  O2          0.76643      0.29906      0.01147  1.0000
  O1          0.70923      0.45936      0.34823  1.0000
  O2          0.52400      0.22020      0.67964  1.0000
  O2          0.22415      0.68975      0.51618  1.0000
  O2          0.29808      0.52655      0.84504  1.0000
  O2          0.46472      0.76973      0.17476  1.0000
  O2          0.29711      0.76847      0.31953  1.0000
  O2          0.46311      0.69185      0.98998  1.0000
  O2          0.22143      0.52370      0.66069  1.0000
  O2          0.69063      0.22303      0.82456  1.0000
  O2          0.53376      0.31312      0.49382  1.0000
  O2          0.77128      0.46730      0.15631  1.0000
  O2          0.78091      0.53115      0.02864  1.0000
  O1          0.45506      0.24166      0.35671  1.0000
  O2          0.74225      0.20655      0.69728  1.0000
  O2          0.21491      0.46054      0.53277  1.0000
  O2          0.52992      0.74339      0.86227  1.0000
  O2          0.25044      0.78695      0.19332  1.0000
  O2          0.52510      0.77126      0.30430  1.0000
  O2          0.24633      0.46017      0.97290  1.0000
  O2          0.20420      0.73893      0.64457  1.0000
  O2          0.45869      0.20851      0.80716  1.0000
  O2          0.74343      0.52311      0.46215  1.0000
  O2          0.78620      0.24968      0.13860  1.0000
  O2          0.22724      0.31797      0.89915  1.0000
  O2          0.67076      0.89151      0.23010  1.0000
  O2          0.08569      0.76174      0.56996  1.0000
  O3          0.75332      0.68394      0.39907  1.0000
  O2          0.31552      0.08343      0.73364  1.0000
  O2          0.90789      0.22933      0.06443  1.0000
  O3          0.32428      0.21176      0.44043  1.0000
  O2          0.90676      0.67460      0.10188  1.0000
  O2          0.76127      0.08343      0.77125  1.0000
  O2          0.67249      0.76242      0.93620  1.0000
  O2          0.08685      0.31682      0.60548  1.0000
  O2          0.23481      0.91448      0.26731  1.0000
  O2          0.58415      0.55429      0.99147  1.0000
  O2          0.44332      0.02562      0.32340  1.0000
  O2          0.96304      0.40352      0.66077  1.0000
  O3          0.38812      0.42077      0.49047  1.0000
  O2          0.55257      0.96530      0.82677  1.0000
  O2          0.02902      0.58578      0.15644  1.0000
  O1          0.54822      0.57345      0.33411  1.0000
  O2          0.02454      0.43692      0.00867  1.0000
  O2          0.40438      0.96213      0.67881  1.0000
  O2          0.43625      0.40585      0.84417  1.0000
  O2          0.96484      0.55602      0.51413  1.0000
  O2          0.59319      0.02801      0.17615  1.0000
  O2          0.58765      0.16218      0.24990  1.0000
  O2          0.82805      0.40898      0.58689  1.0000
  O2          0.57935      0.41213      0.91801  1.0000
  O2          0.41130      0.82780      0.75328  1.0000
  O2          0.16316      0.57825      0.08209  1.0000
  O1          0.41376      0.59786      0.41734  1.0000
  F           0.45498      0.90525      0.24890  1.0000
  F           0.08747      0.53911      0.58724  1.0000
  F           0.44763      0.54273      0.91748  1.0000
  F           0.54088      0.08786      0.75212  1.0000
  F           0.90252      0.44950      0.08316  1.0000
  F           0.51641      0.44949      0.40930  1.0000
