data_cif

_audit_creation_method             'generated by GULP'

_symmetry_space_group_name_H-M     'P 1'
_symmetry_Int_Tables_number        1
_symmetry_cell_setting             triclinic

_cell_length_a                       12.4149
_cell_length_b                       12.4293
_cell_length_c                       30.3797
_cell_angle_alpha                   90.1258
_cell_angle_beta                    89.8676
_cell_angle_gamma                  119.9893

loop_
_atom_site_label
_atom_site_fract_x
_atom_site_fract_y
_atom_site_fract_z
_atom_site_occupancy
  Ge          0.69960      0.37570      0.03389  1.0000
  Ge          0.62124      0.29704      0.36495  1.0000
  Ge          0.69714      0.29379      0.69920  1.0000
  Ge          0.30301      0.59944      0.52737  1.0000
  Ge          0.39325      0.67248      0.86163  1.0000
  Ge          0.32399      0.69414      0.19520  1.0000
  Ge          0.35973      0.65806      0.29351  1.0000
  Ge          0.31907      0.64057      0.96010  1.0000
  Ge          0.34332      0.67359      0.62615  1.0000
  Ge          0.64626      0.31219      0.79779  1.0000
  Ge          0.68699      0.34560      0.46373  1.0000
  Ge          0.68217      0.30803      0.13244  1.0000
  Ge          0.54257      0.43610      0.96955  1.0000
  Ge          0.55874      0.07293      0.30329  1.0000
  Ge          0.91506      0.45107      0.63459  1.0000
  Ge          0.46858      0.54697      0.46239  1.0000
  Ge          0.44467      0.88846      0.79464  1.0000
  Ge          0.10676      0.53083      0.12880  1.0000
  Ge          0.41176      0.48506      0.35745  1.0000
  Ge          0.09620      0.58420      0.02405  1.0000
  Ge          0.50836      0.89723      0.68998  1.0000
  Ge          0.59808      0.48191      0.86491  1.0000
  Ge          0.90614      0.39471      0.52963  1.0000
  Ge          0.51369      0.08840      0.19885  1.0000
  Ge          0.30840      0.39612      0.84493  1.0000
  Ge          0.60043      0.88591      0.18037  1.0000
  Ge          0.11276      0.68477      0.50941  1.0000
  Ge          0.70304      0.56699      0.34022  1.0000
  Ge          0.42862      0.10363      0.67314  1.0000
  Ge          0.88994      0.29744      0.00747  1.0000
  Ge          0.40063      0.26028      0.47563  1.0000
  Ge          0.88427      0.59874      0.14276  1.0000
  Ge          0.73473      0.10989      0.80841  1.0000
  Ge          0.60278      0.72119      0.97705  1.0000
  Ge          0.14015      0.38935      0.64219  1.0000
  Ge          0.27137      0.85478      0.30990  1.0000
  Ge          0.25627      0.35636      0.94781  1.0000
  Si          0.64043      0.87361      0.28154  1.0000
  Ge          0.12175      0.73733      0.61285  1.0000
  Ge          0.75595      0.63037      0.44344  1.0000
  Ge          0.36350      0.09561      0.77699  1.0000
  Ge          0.89923      0.24220      0.11127  1.0000
  Ge          0.33523      0.20148      0.37200  1.0000
  Ge          0.88556      0.65949      0.04041  1.0000
  Ge          0.79421      0.10740      0.70606  1.0000
  Ge          0.67653      0.76807      0.87379  1.0000
  Ge          0.11422      0.31644      0.53840  1.0000
  Ge          0.22820      0.88051      0.20637  1.0000
  Ge          0.97755      0.12673      0.96098  1.0000
  Ge          0.86646      0.82680      0.29311  1.0000
  Ge          0.17067      0.01646      0.62660  1.0000
  Si          0.02941      0.85269      0.45993  1.0000
  Si          0.13959      0.14606      0.79363  1.0000
  Si          0.85060      0.96858      0.12806  1.0000
  Si          0.10140      0.93023      0.35996  1.0000
  Si          0.84582      0.88989      0.02778  1.0000
  Si          0.06409      0.14648      0.69355  1.0000
  Si          0.90723      0.03669      0.85955  1.0000
  Si          0.15320      0.08634      0.52521  1.0000
  Si          0.96103      0.84638      0.19279  1.0000
  O3          0.93196      0.00846      0.99854  1.0000
  O3          0.98052      0.90152      0.33245  1.0000
  O3          0.09753      0.05931      0.66526  1.0000
  O2          0.07568      0.96563      0.49459  1.0000
  O2          0.02484      0.07551      0.82739  1.0000
  O2          0.92557      0.92668      0.16040  1.0000
  O1          0.32834      0.53529      0.32699  1.0000
  O1          0.46902      0.76687      0.65863  1.0000
  O1          0.22591      0.67441      0.99225  1.0000
  O1          0.67994      0.42770      0.83538  1.0000
  O1          0.56813      0.22581      0.17044  1.0000
  O1          0.76984      0.31204      0.50074  1.0000
  O1          0.56648      0.34187      0.00196  1.0000
  O1          0.79682      0.42672      0.66726  1.0000
  O1          0.65401      0.19385      0.33450  1.0000
  O1          0.43194      0.63630      0.49252  1.0000
  O1          0.23450      0.56942      0.15810  1.0000
  O1          0.35776      0.76138      0.82437  1.0000
  O1          0.13016      0.22854      0.97155  1.0000
  O3          0.76020      0.87535      0.30322  1.0000
  O1          0.12000      0.86347      0.63637  1.0000
  O3          0.88297      0.76349      0.46599  1.0000
  O3          0.22730      0.08639      0.79786  1.0000
  O3          0.90768      0.11535      0.13236  1.0000
  O3          0.20457      0.07200      0.35082  1.0000
  O3          0.88965      0.79065      0.01853  1.0000
  O3          0.92118      0.10278      0.68393  1.0000
  O3          0.81352      0.89102      0.85248  1.0000
  O3          0.10324      0.18094      0.51673  1.0000
  O3          0.10569      0.89559      0.18521  1.0000
  O3          0.93542      0.87343      0.24230  1.0000
  O3          0.12692      0.03927      0.57527  1.0000
  O3          0.95773      0.06286      0.90906  1.0000
  O2          0.08366      0.12599      0.74469  1.0000
  O2          0.86760      0.93363      0.07855  1.0000
  O2          0.06284      0.91156      0.41140  1.0000
  O1          0.89455      0.20170      0.96684  1.0000
  O1          0.79496      0.66997      0.29932  1.0000
  O1          0.32861      0.09887      0.63251  1.0000
  O3          0.09837      0.77512      0.46849  1.0000
  O3          0.21772      0.29129      0.80391  1.0000
  O3          0.70650      0.89726      0.14048  1.0000
  O3          0.15949      0.84420      0.34786  1.0000
  O3          0.70086      0.82846      0.01659  1.0000
  O3          0.14794      0.29081      0.68172  1.0000
  O3          0.83431      0.10993      0.84952  1.0000
  O3          0.30005      0.15829      0.51594  1.0000
  O3          0.88490      0.69982      0.18362  1.0000
  O1          0.32201      0.60598      0.24040  1.0000
  O1          0.39182      0.68463      0.57279  1.0000
  O1          0.30651      0.67601      0.90645  1.0000
  O1          0.72057      0.37435      0.74895  1.0000
  O1          0.61915      0.31896      0.08370  1.0000
  O1          0.70628      0.30389      0.41173  1.0000
  O1          0.38434      0.34517      0.95666  1.0000
  O3          0.64897      0.00386      0.28994  1.0000
  O1          0.98273      0.60911      0.62193  1.0000
  O1          0.62739      0.64205      0.45185  1.0000
  O1          0.38227      0.98532      0.80303  1.0000
  O1          0.01007      0.37155      0.13703  1.0000
  O1          0.33916      0.32758      0.34729  1.0000
  O1          0.02902      0.67630      0.02966  1.0000
  O1          0.66761      0.96396      0.69570  1.0000
  O1          0.66671      0.63671      0.85094  1.0000
  O1          0.98957      0.32193      0.51690  1.0000
  O1          0.35942      0.00341      0.18401  1.0000
  O1          0.74500      0.28100      0.00599  1.0000
  O1          0.69268      0.42711      0.33010  1.0000
  O1          0.55721      0.24833      0.67136  1.0000
  O1          0.23647      0.66808      0.49520  1.0000
  O1          0.32854      0.53704      0.82956  1.0000
  O1          0.46177      0.76339      0.16421  1.0000
  O1          0.26107      0.71196      0.31001  1.0000
  O1          0.47225      0.73519      0.97674  1.0000
  O1          0.28392      0.52051      0.64288  1.0000
  O1          0.70231      0.22397      0.82253  1.0000
  O1          0.53212      0.24865      0.47804  1.0000
  O1          0.76961      0.45286      0.15699  1.0000
  O1          0.76528      0.53343      0.01577  1.0000
  O1          0.46024      0.18846      0.35651  1.0000
  O1          0.78852      0.22722      0.68115  1.0000
  O1          0.24969      0.43855      0.51960  1.0000
  O1          0.55313      0.78167      0.85713  1.0000
  O1          0.21367      0.74379      0.18890  1.0000
  O3          0.51686      0.76236      0.30341  1.0000
  O1          0.26223      0.48488      0.97153  1.0000
  O1          0.24330      0.72996      0.63664  1.0000
  O1          0.48686      0.23817      0.78987  1.0000
  O1          0.74286      0.50311      0.47026  1.0000
  O1          0.75670      0.22326      0.12421  1.0000
  O1          0.22108      0.34466      0.89239  1.0000
  O3          0.64908      0.85105      0.22940  1.0000
  O1          0.14430      0.76979      0.55730  1.0000
  O1          0.78585      0.63219      0.38817  1.0000
  O1          0.34250      0.07263      0.72113  1.0000
  O1          0.92176      0.24326      0.05538  1.0000
  O1          0.31592      0.20230      0.42824  1.0000
  O1          0.85511      0.65698      0.09599  1.0000
  O1          0.82247      0.13923      0.76156  1.0000
  O1          0.69257      0.77518      0.93024  1.0000
  O1          0.10916      0.30206      0.59496  1.0000
  O1          0.21807      0.88904      0.26280  1.0000
  O1          0.56221      0.57362      0.99213  1.0000
  O1          0.41913      0.95994      0.32575  1.0000
  O1          0.03179      0.42904      0.65670  1.0000
  O1          0.44655      0.41152      0.48716  1.0000
  O1          0.60238      0.96955      0.80621  1.0000
  O1          0.02428      0.60582      0.14079  1.0000
  O1          0.56212      0.56213      0.33791  1.0000
  O1          0.00101      0.44879      0.99554  1.0000
  O1          0.46857      0.99214      0.66123  1.0000
  O1          0.44571      0.39424      0.84803  1.0000
  O1          0.97501      0.54537      0.51059  1.0000
  O1          0.60193      0.02440      0.18137  1.0000
  O1          0.52534      0.11996      0.25388  1.0000
  O1          0.87028      0.37474      0.58441  1.0000
  O1          0.62115      0.46955      0.91966  1.0000
  O1          0.43086      0.85181      0.73893  1.0000
  O1          0.14280      0.55423      0.07304  1.0000
  O1          0.39433      0.50890      0.41178  1.0000
  F           0.41051      0.84243      0.23572  1.0000
  F           0.15515      0.54137      0.56759  1.0000
  F           0.44855      0.58042      0.90337  1.0000
  F           0.60386      0.13911      0.73480  1.0000
  F           0.85448      0.43828      0.06920  1.0000
  F           0.56015      0.39204      0.40022  1.0000
