data_cif

_audit_creation_method             'generated by GULP'

_symmetry_space_group_name_H-M     'P 1'
_symmetry_Int_Tables_number        1
_symmetry_cell_setting             triclinic

_cell_length_a                       12.4706
_cell_length_b                       12.4440
_cell_length_c                       30.3420
_cell_angle_alpha                   89.8668
_cell_angle_beta                    89.8073
_cell_angle_gamma                  120.3419

loop_
_atom_site_label
_atom_site_fract_x
_atom_site_fract_y
_atom_site_fract_z
_atom_site_occupancy
  Ge          0.69960      0.37570      0.03389  1.0000
  Ge          0.68230      0.34367      0.36677  1.0000
  Ge          0.71454      0.35616      0.70188  1.0000
  Ge          0.35763      0.66599      0.53170  1.0000
  Ge          0.38498      0.70055      0.86615  1.0000
  Ge          0.34671      0.69744      0.19928  1.0000
  Ge          0.41257      0.71852      0.29801  1.0000
  Ge          0.34020      0.63075      0.96528  1.0000
  Ge          0.33316      0.71236      0.63031  1.0000
  Ge          0.64103      0.31791      0.80089  1.0000
  Ge          0.71685      0.41202      0.46579  1.0000
  Ge          0.72793      0.33216      0.13261  1.0000
  Ge          0.52708      0.42402      0.96958  1.0000
  Ge          0.62476      0.11810      0.30284  1.0000
  Ge          0.93753      0.52160      0.63713  1.0000
  Ge          0.52892      0.61883      0.46520  1.0000
  Ge          0.43389      0.92177      0.80100  1.0000
  Ge          0.12470      0.52596      0.13366  1.0000
  Ge          0.48035      0.56581      0.36073  1.0000
  Ge          0.11983      0.58188      0.02850  1.0000
  Ge          0.48942      0.92852      0.69581  1.0000
  Ge          0.58712      0.48311      0.86455  1.0000
  Ge          0.93275      0.46104      0.53218  1.0000
  Ge          0.56619      0.11205      0.19764  1.0000
  Ge          0.30102      0.41561      0.85284  1.0000
  Ge          0.63549      0.89398      0.18720  1.0000
  Ge          0.15595      0.75322      0.51985  1.0000
  Ge          0.76534      0.62790      0.35177  1.0000
  Ge          0.42893      0.15341      0.68739  1.0000
  Ge          0.90060      0.29359      0.01873  1.0000
  Ge          0.44200      0.32800      0.48447  1.0000
  Ge          0.91720      0.60555      0.15354  1.0000
  Ge          0.72516      0.12848      0.82026  1.0000
  Ge          0.61197      0.71496      0.98750  1.0000
  Ge          0.14222      0.44166      0.65523  1.0000
  Ge          0.33262      0.90895      0.31914  1.0000
  Ge          0.24351      0.34603      0.95651  1.0000
  Ge          0.69720      0.90711      0.29155  1.0000
  Ge          0.14788      0.80912      0.62234  1.0000
  Ge          0.81373      0.69596      0.45544  1.0000
  Ge          0.35669      0.12958      0.79142  1.0000
  Ge          0.91874      0.24036      0.12226  1.0000
  Ge          0.39942      0.27988      0.38164  1.0000
  Ge          0.91694      0.66354      0.05011  1.0000
  Ge          0.77668      0.13462      0.71655  1.0000
  Ge          0.66960      0.76955      0.88404  1.0000
  Ge          0.13900      0.38079      0.55117  1.0000
  Si          0.28318      0.91282      0.21730  1.0000
  Si          0.96998      0.11774      0.96921  1.0000
  Si          0.93112      0.87458      0.30229  1.0000
  Si          0.18661      0.07853      0.63585  1.0000
  Si          0.08266      0.92647      0.47008  1.0000
  Si          0.12688      0.16848      0.80403  1.0000
  Si          0.88074      0.96934      0.13502  1.0000
  Ge          0.16784      0.00225      0.36815  1.0000
  Si          0.86347      0.88481      0.03517  1.0000
  Ge          0.05516      0.18317      0.70261  1.0000
  Si          0.89190      0.04426      0.86934  1.0000
  Si          0.19128      0.15863      0.53573  1.0000
  Ge          0.00983      0.86471      0.20181  1.0000
  O2          0.92718      0.99639      0.99952  1.0000
  O3          0.04939      0.96258      0.33131  1.0000
  O3          0.09900      0.10986      0.66464  1.0000
  O2          0.12158      0.04315      0.50241  1.0000
  O2          0.00753      0.09286      0.83571  1.0000
  O3          0.97351      0.93912      0.16125  1.0000
  O1          0.38075      0.58675      0.33025  1.0000
  O1          0.46402      0.81005      0.66339  1.0000
  O1          0.24428      0.66910      0.99715  1.0000
  O1          0.67775      0.44887      0.83443  1.0000
  O1          0.59653      0.23422      0.16623  1.0000
  O1          0.80702      0.37496      0.50180  1.0000
  O1          0.57773      0.34049      0.99945  1.0000
  O1          0.80619      0.48045      0.66826  1.0000
  O1          0.71249      0.25239      0.33252  1.0000
  O1          0.47538      0.70027      0.49500  1.0000
  O1          0.26129      0.58162      0.16261  1.0000
  O1          0.35065      0.78564      0.83047  1.0000
  O3          0.11470      0.21110      0.97719  1.0000
  O3          0.82773      0.91079      0.31338  1.0000
  O3          0.14148      0.93472      0.64441  1.0000
  O3          0.93739      0.83120      0.47753  1.0000
  O3          0.22136      0.11910      0.81275  1.0000
  O3          0.92431      0.11277      0.14323  1.0000
  O1          0.27046      0.15506      0.35791  1.0000
  O3          0.91940      0.79532      0.02801  1.0000
  O1          0.90193      0.13139      0.69316  1.0000
  O3          0.80219      0.89851      0.86148  1.0000
  O3          0.13240      0.24620      0.53040  1.0000
  O3          0.16713      0.91842      0.19612  1.0000
  O3          0.97332      0.90411      0.25140  1.0000
  O2          0.16842      0.10314      0.58497  1.0000
  O2          0.94618      0.07169      0.91865  1.0000
  O3          0.07802      0.14030      0.75424  1.0000
  O2          0.89411      0.94606      0.08339  1.0000
  O3          0.10731      0.97887      0.42064  1.0000
  O3          0.89596      0.18915      0.97902  1.0000
  O3          0.87252      0.72851      0.31217  1.0000
  O3          0.33076      0.16132      0.64793  1.0000
  O3          0.15712      0.85485      0.47912  1.0000
  O3          0.19950      0.31577      0.81238  1.0000
  O3          0.73745      0.88661      0.14894  1.0000
  O1          0.23777      0.91651      0.35916  1.0000
  O3          0.71619      0.80682      0.02850  1.0000
  O1          0.13669      0.34116      0.69600  1.0000
  O3          0.81629      0.11476      0.86098  1.0000
  O3          0.33695      0.23673      0.52578  1.0000
  O1          0.92942      0.70801      0.19460  1.0000
  O1          0.32853      0.63718      0.25133  1.0000
  O1          0.41678      0.73831      0.58100  1.0000
  O1          0.34564      0.71707      0.91875  1.0000
  O1          0.72728      0.40576      0.75510  1.0000
  O1          0.64484      0.33507      0.08683  1.0000
  O1          0.71757      0.32665      0.42011  1.0000
  O1          0.37007      0.35136      0.98099  1.0000
  O1          0.69531      0.03246      0.31403  1.0000
  O1          0.00412      0.68108      0.63204  1.0000
  O1          0.68349      0.68611      0.47909  1.0000
  O1          0.36159      0.00510      0.81343  1.0000
  O1          0.04211      0.36889      0.14565  1.0000
  O1          0.38797      0.40802      0.37457  1.0000
  O1          0.05663      0.67666      0.03937  1.0000
  O1          0.64731      0.99554      0.70832  1.0000
  O1          0.68222      0.64210      0.87551  1.0000
  O1          0.02884      0.39808      0.52471  1.0000
  O3          0.40664      0.04308      0.20966  1.0000
  O1          0.75685      0.27968      0.01836  1.0000
  O1          0.77965      0.49783      0.35116  1.0000
  O1          0.56090      0.29696      0.68611  1.0000
  O1          0.27207      0.72396      0.50649  1.0000
  O1          0.28811      0.54597      0.85125  1.0000
  O1          0.50056      0.75311      0.18427  1.0000
  O1          0.34010      0.77919      0.33103  1.0000
  O1          0.47156      0.70007      0.99955  1.0000
  O1          0.28647      0.57122      0.65777  1.0000
  O1          0.70981      0.25299      0.83374  1.0000
  O1          0.58253      0.34643      0.49887  1.0000
  O1          0.79068      0.46489      0.16612  1.0000
  O1          0.80028      0.53336      0.02535  1.0000
  O1          0.52733      0.28999      0.35636  1.0000
  O1          0.76929      0.25515      0.69194  1.0000
  O1          0.28167      0.50598      0.53891  1.0000
  O1          0.54176      0.75572      0.85782  1.0000
  O3          0.29492      0.80351      0.19368  1.0000
  O1          0.57343      0.77001      0.30886  1.0000
  O1          0.22967      0.46941      0.97300  1.0000
  O1          0.26626      0.80307      0.64789  1.0000
  O1          0.48011      0.26530      0.80944  1.0000
  O1          0.82706      0.57188      0.47115  1.0000
  O1          0.78185      0.22557      0.13977  1.0000
  O1          0.24313      0.32859      0.90016  1.0000
  O1          0.71759      0.91928      0.23502  1.0000
  O1          0.18178      0.83905      0.56693  1.0000
  O1          0.82058      0.71537      0.39899  1.0000
  O1          0.34200      0.12291      0.73480  1.0000
  O1          0.93325      0.23896      0.06584  1.0000
  O1          0.38954      0.24155      0.43690  1.0000
  O1          0.89451      0.66774      0.10581  1.0000
  O1          0.80936      0.15871      0.77206  1.0000
  O1          0.67115      0.79900      0.93934  1.0000
  O1          0.11352      0.35756      0.60702  1.0000
  O3          0.25373      0.88831      0.26947  1.0000
  O1          0.60832      0.57489      0.98876  1.0000
  O1          0.47353      0.04514      0.32219  1.0000
  O1          0.02995      0.48018      0.66644  1.0000
  O1          0.44113      0.46568      0.48193  1.0000
  O1          0.58461      0.99112      0.81996  1.0000
  O1          0.05492      0.60495      0.15383  1.0000
  O1          0.61652      0.58388      0.33760  1.0000
  O1          0.00407      0.44465      0.00532  1.0000
  O1          0.46781      0.04482      0.67325  1.0000
  O1          0.45190      0.46236      0.84038  1.0000
  O1          0.01639      0.61915      0.52072  1.0000
  O1          0.59581      0.00275      0.17420  1.0000
  O1          0.64098      0.15583      0.24807  1.0000
  O1          0.89377      0.44627      0.58786  1.0000
  O1          0.54811      0.40665      0.91500  1.0000
  O1          0.41350      0.88487      0.74629  1.0000
  O1          0.16040      0.54633      0.07885  1.0000
  O1          0.51839      0.64519      0.41048  1.0000
  F           0.48041      0.87152      0.26207  1.0000
  F           0.18066      0.62006      0.59378  1.0000
  F           0.43270      0.57043      0.92851  1.0000
  F           0.58118      0.16945      0.76197  1.0000
  F           0.88096      0.42826      0.09453  1.0000
  F           0.62574      0.47036      0.42574  1.0000
