data_cif

_audit_creation_method             'generated by GULP'

_symmetry_space_group_name_H-M     'P 1'
_symmetry_Int_Tables_number        1
_symmetry_cell_setting             triclinic

_cell_length_a                       12.4674
_cell_length_b                       12.4100
_cell_length_c                       30.3087
_cell_angle_alpha                   90.1013
_cell_angle_beta                    89.9919
_cell_angle_gamma                  120.0406

loop_
_atom_site_label
_atom_site_fract_x
_atom_site_fract_y
_atom_site_fract_z
_atom_site_occupancy
  Ge          0.69960      0.37570      0.03389  1.0000
  Ge          0.60321      0.30030      0.36751  1.0000
  Ge          0.67663      0.27808      0.69959  1.0000
  Ge          0.29017      0.59274      0.53559  1.0000
  Ge          0.37774      0.67173      0.87014  1.0000
  Ge          0.30822      0.68113      0.20280  1.0000
  Ge          0.34930      0.65926      0.30231  1.0000
  Ge          0.30805      0.62465      0.96902  1.0000
  Ge          0.31472      0.66124      0.63483  1.0000
  Ge          0.64227      0.31689      0.79862  1.0000
  Ge          0.67598      0.33867      0.46642  1.0000
  Ge          0.66301      0.29922      0.13207  1.0000
  Ge          0.52947      0.42202      0.96728  1.0000
  Ge          0.55054      0.08062      0.30299  1.0000
  Ge          0.89553      0.44347      0.63577  1.0000
  Ge          0.46091      0.54360      0.47250  1.0000
  Ge          0.43901      0.88933      0.80533  1.0000
  Ge          0.08631      0.51870      0.14004  1.0000
  Ge          0.39949      0.48868      0.36716  1.0000
  Ge          0.09163      0.58024      0.03567  1.0000
  Ge          0.48678      0.88223      0.70006  1.0000
  Ge          0.58378      0.48245      0.86240  1.0000
  Ge          0.89703      0.38570      0.53064  1.0000
  Ge          0.49653      0.07846      0.19753  1.0000
  Ge          0.29871      0.40221      0.84490  1.0000
  Ge          0.58042      0.87103      0.18129  1.0000
  Ge          0.10292      0.67712      0.51296  1.0000
  Ge          0.68876      0.57449      0.34717  1.0000
  Ge          0.40234      0.08867      0.68054  1.0000
  Ge          0.88918      0.29117      0.01462  1.0000
  Ge          0.39253      0.25546      0.48187  1.0000
  Ge          0.86388      0.58117      0.14982  1.0000
  Ge          0.72504      0.11434      0.81378  1.0000
  Ge          0.59788      0.71282      0.97985  1.0000
  Ge          0.11394      0.37579      0.64788  1.0000
  Ge          0.26383      0.85981      0.31416  1.0000
  Ge          0.24211      0.34033      0.94919  1.0000
  Ge          0.63450      0.87670      0.28512  1.0000
  Ge          0.09921      0.73041      0.61655  1.0000
  Ge          0.74563      0.62624      0.45110  1.0000
  Ge          0.35788      0.09543      0.78433  1.0000
  Ge          0.88103      0.23413      0.11740  1.0000
  Ge          0.31997      0.20316      0.37822  1.0000
  Ge          0.88615      0.65938      0.04727  1.0000
  Ge          0.77232      0.09004      0.70959  1.0000
  Ge          0.66026      0.76932      0.87733  1.0000
  Ge          0.10242      0.30763      0.54403  1.0000
  Ge          0.21335      0.87060      0.20986  1.0000
  Si          0.96762      0.11807      0.96531  1.0000
  Si          0.85747      0.82914      0.30096  1.0000
  Si          0.15095      0.00449      0.63135  1.0000
  Si          0.02060      0.84684      0.46551  1.0000
  Ge          0.12754      0.14326      0.79824  1.0000
  Si          0.82995      0.96037      0.13183  1.0000
  Si          0.09059      0.93103      0.36578  1.0000
  Si          0.84234      0.88733      0.03202  1.0000
  Si          0.04060      0.12817      0.69675  1.0000
  Si          0.89186      0.03840      0.86528  1.0000
  Si          0.14745      0.07963      0.53143  1.0000
  Ge          0.93769      0.83201      0.19933  1.0000
  O2          0.92186      0.00587      0.00045  1.0000
  O2          0.96769      0.89070      0.33701  1.0000
  O2          0.08394      0.05260      0.66506  1.0000
  O2          0.06952      0.95924      0.50069  1.0000
  O3          0.01200      0.07123      0.83698  1.0000
  O3          0.90151      0.92041      0.16578  1.0000
  O1          0.31497      0.54045      0.33841  1.0000
  O1          0.43384      0.74612      0.67077  1.0000
  O1          0.22687      0.66126      0.00579  1.0000
  O1          0.67470      0.44208      0.83157  1.0000
  O1          0.54130      0.21001      0.16634  1.0000
  O1          0.76291      0.30254      0.50054  1.0000
  O1          0.57256      0.33874      0.99774  1.0000
  O1          0.77033      0.40868      0.66574  1.0000
  O1          0.63927      0.20598      0.33354  1.0000
  O1          0.42449      0.63106      0.50384  1.0000
  O1          0.20943      0.54774      0.17058  1.0000
  O1          0.34479      0.77072      0.83765  1.0000
  O3          0.11473      0.20453      0.96987  1.0000
  O3          0.76526      0.88217      0.30902  1.0000
  O3          0.09494      0.85869      0.63911  1.0000
  O3          0.87545      0.75724      0.47347  1.0000
  O1          0.22950      0.09214      0.80775  1.0000
  O3          0.88076      0.10491      0.14035  1.0000
  O3          0.18446      0.07584      0.35776  1.0000
  O3          0.89792      0.79651      0.02672  1.0000
  O3          0.89661      0.07904      0.68811  1.0000
  O3          0.79247      0.89549      0.85544  1.0000
  O3          0.09622      0.17301      0.52340  1.0000
  O1          0.08933      0.87915      0.18892  1.0000
  O3          0.91861      0.86633      0.25309  1.0000
  O2          0.12409      0.03237      0.58196  1.0000
  O2          0.93194      0.05797      0.91665  1.0000
  O3          0.06102      0.09943      0.74666  1.0000
  O2          0.86014      0.93659      0.08218  1.0000
  O2          0.04835      0.90640      0.41684  1.0000
  O3          0.90286      0.19935      0.97359  1.0000
  O3          0.78059      0.68065      0.30646  1.0000
  O3          0.29723      0.07502      0.63975  1.0000
  O3          0.09066      0.76965      0.47204  1.0000
  O1          0.20356      0.30131      0.80424  1.0000
  O3          0.68345      0.88135      0.14014  1.0000
  O3          0.15944      0.85538      0.35391  1.0000
  O3          0.69795      0.81363      0.02067  1.0000
  O3          0.11560      0.27547      0.68832  1.0000
  O3          0.83162      0.12235      0.85331  1.0000
  O3          0.29309      0.15120      0.52185  1.0000
  O1          0.85471      0.67554      0.19041  1.0000
  O1          0.31212      0.60106      0.24966  1.0000
  O1          0.37101      0.67864      0.58225  1.0000
  O1          0.32066      0.69693      0.91963  1.0000
  O1          0.67930      0.36619      0.74530  1.0000
  O1          0.61243      0.28479      0.07856  1.0000
  O1          0.69003      0.30141      0.41317  1.0000
  O1          0.37064      0.35865      0.97551  1.0000
  O1          0.64559      0.01709      0.29254  1.0000
  O1          0.95912      0.60241      0.62486  1.0000
  O1          0.61908      0.63918      0.46168  1.0000
  O1          0.34843      0.95672      0.79278  1.0000
  O1          0.02155      0.36059      0.12692  1.0000
  O1          0.32568      0.33188      0.35491  1.0000
  O1          0.00631      0.65045      0.02281  1.0000
  O1          0.64257      0.96563      0.68765  1.0000
  O1          0.67659      0.64191      0.86770  1.0000
  O1          0.98126      0.31318      0.51937  1.0000
  O1          0.34123      0.99089      0.18550  1.0000
  O1          0.76879      0.31229      0.00008  1.0000
  O1          0.67315      0.43398      0.33399  1.0000
  O1          0.54236      0.21297      0.66685  1.0000
  O1          0.22868      0.66269      0.50115  1.0000
  O1          0.28300      0.53104      0.84248  1.0000
  O1          0.44096      0.74328      0.16927  1.0000
  O1          0.25181      0.71628      0.31620  1.0000
  O1          0.45214      0.68103      0.99387  1.0000
  O1          0.25720      0.50656      0.64961  1.0000
  O1          0.73632      0.25767      0.81494  1.0000
  O1          0.52248      0.24188      0.48195  1.0000
  O1          0.71912      0.45251      0.14805  1.0000
  O1          0.74856      0.53591      0.03098  1.0000
  O1          0.44235      0.18986      0.36028  1.0000
  O1          0.78482      0.22558      0.69123  1.0000
  O1          0.23971      0.43153      0.52774  1.0000
  O1          0.53526      0.76269      0.85188  1.0000
  O1          0.19817      0.73134      0.19433  1.0000
  O1          0.50534      0.76255      0.31093  1.0000
  O1          0.22405      0.46467      0.96172  1.0000
  O1          0.21301      0.71620      0.64296  1.0000
  O1          0.48627      0.21636      0.80870  1.0000
  O1          0.73142      0.49560      0.47577  1.0000
  O1          0.76437      0.24561      0.14265  1.0000
  O1          0.24397      0.31785      0.89325  1.0000
  O1          0.63940      0.84768      0.22976  1.0000
  O1          0.12745      0.76048      0.56123  1.0000
  O1          0.77242      0.63110      0.39541  1.0000
  O1          0.34870      0.11905      0.72869  1.0000
  O1          0.85512      0.20303      0.06188  1.0000
  O1          0.30473      0.20054      0.43476  1.0000
  O1          0.90160      0.67535      0.10379  1.0000
  O1          0.78132      0.08434      0.76630  1.0000
  O1          0.65593      0.79943      0.93275  1.0000
  O1          0.08508      0.28957      0.60045  1.0000
  O1          0.20813      0.88747      0.26639  1.0000
  O1          0.60595      0.58033      0.97805  1.0000
  O1          0.41381      0.96619      0.32668  1.0000
  O1          0.00978      0.42239      0.66016  1.0000
  O1          0.43985      0.40618      0.49542  1.0000
  O1          0.57743      0.00542      0.82792  1.0000
  O1          0.96865      0.53634      0.16351  1.0000
  O1          0.54881      0.57069      0.34692  1.0000
  O1          0.02763      0.42868      0.01739  1.0000
  O1          0.40520      0.95133      0.68098  1.0000
  O1          0.44958      0.44155      0.83319  1.0000
  O1          0.96661      0.53672      0.51147  1.0000
  O1          0.57863      0.00858      0.17974  1.0000
  O1          0.51556      0.11912      0.25205  1.0000
  O1          0.85833      0.36758      0.58524  1.0000
  O1          0.55119      0.40577      0.91154  1.0000
  O1          0.47073      0.84560      0.75486  1.0000
  O1          0.12775      0.60004      0.09051  1.0000
  O1          0.38470      0.50815      0.42210  1.0000
  F           0.39926      0.83591      0.23938  1.0000
  F           0.13725      0.53170      0.57205  1.0000
  F           0.43885      0.57966      0.90616  1.0000
  F           0.58795      0.12990      0.73889  1.0000
  F           0.84887      0.43100      0.07415  1.0000
  F           0.54494      0.39144      0.40566  1.0000
