data_cif

_audit_creation_method             'generated by GULP'

_symmetry_space_group_name_H-M     'P 1'
_symmetry_Int_Tables_number        1
_symmetry_cell_setting             triclinic

_cell_length_a                       12.4089
_cell_length_b                       12.4324
_cell_length_c                       30.3602
_cell_angle_alpha                   89.9819
_cell_angle_beta                    90.2281
_cell_angle_gamma                  119.9477

loop_
_atom_site_label
_atom_site_fract_x
_atom_site_fract_y
_atom_site_fract_z
_atom_site_occupancy
  Ge          0.69960      0.37570      0.03389  1.0000
  Ge          0.67769      0.33420      0.36604  1.0000
  Ge          0.71877      0.35206      0.69998  1.0000
  Ge          0.35633      0.66438      0.52893  1.0000
  Ge          0.38910      0.70381      0.86207  1.0000
  Ge          0.35036      0.69658      0.19616  1.0000
  Ge          0.41977      0.71976      0.29508  1.0000
  Ge          0.34646      0.64132      0.96141  1.0000
  Ge          0.33720      0.70674      0.62834  1.0000
  Ge          0.64148      0.31272      0.79771  1.0000
  Ge          0.71576      0.41008      0.46459  1.0000
  Ge          0.74078      0.33713      0.13162  1.0000
  Ge          0.53744      0.43475      0.96920  1.0000
  Ge          0.62477      0.11205      0.30276  1.0000
  Ge          0.93893      0.51819      0.63451  1.0000
  Ge          0.52596      0.61391      0.46387  1.0000
  Ge          0.43722      0.92087      0.79545  1.0000
  Ge          0.13310      0.52628      0.12929  1.0000
  Ge          0.47185      0.55249      0.35848  1.0000
  Ge          0.12639      0.58148      0.02480  1.0000
  Ge          0.49994      0.92846      0.69124  1.0000
  Ge          0.59175      0.48068      0.86426  1.0000
  Ge          0.93515      0.46297      0.52936  1.0000
  Ge          0.57219      0.12002      0.19792  1.0000
  Ge          0.30096      0.41293      0.85262  1.0000
  Ge          0.64101      0.89910      0.18561  1.0000
  Ge          0.15533      0.74975      0.51737  1.0000
  Ge          0.75951      0.61851      0.34915  1.0000
  Ge          0.43682      0.15129      0.68161  1.0000
  Ge          0.90200      0.29607      0.01502  1.0000
  Ge          0.44099      0.32423      0.48393  1.0000
  Ge          0.93061      0.61260      0.15040  1.0000
  Ge          0.72656      0.12293      0.81723  1.0000
  Ge          0.61808      0.72079      0.98476  1.0000
  Ge          0.14716      0.43460      0.65011  1.0000
  Ge          0.33892      0.90962      0.31910  1.0000
  Ge          0.25079      0.35820      0.95523  1.0000
  Ge          0.70382      0.90431      0.28796  1.0000
  Ge          0.14710      0.80127      0.62152  1.0000
  Ge          0.81181      0.69348      0.45270  1.0000
  Ge          0.35819      0.12737      0.78395  1.0000
  Ge          0.92727      0.24034      0.11743  1.0000
  Ge          0.39018      0.26566      0.38013  1.0000
  Ge          0.91903      0.65976      0.04756  1.0000
  Ge          0.78417      0.13325      0.71451  1.0000
  Ge          0.67287      0.76931      0.88005  1.0000
  Ge          0.13974      0.37921      0.54659  1.0000
  Ge          0.28443      0.91423      0.21477  1.0000
  Ge          0.97737      0.12051      0.96638  1.0000
  Si          0.93364      0.86370      0.29983  1.0000
  Ge          0.18623      0.07750      0.63182  1.0000
  Si          0.08399      0.92283      0.46501  1.0000
  Si          0.12932      0.16939      0.79896  1.0000
  Si          0.88428      0.96884      0.13301  1.0000
  Si          0.16768      0.99040      0.36530  1.0000
  Si          0.86909      0.88341      0.03329  1.0000
  Si          0.05794      0.18484      0.69926  1.0000
  Si          0.89789      0.04006      0.86465  1.0000
  Si          0.18700      0.15561      0.53015  1.0000
  Si          0.01000      0.86360      0.19989  1.0000
  O3          0.94262      0.99743      0.00063  1.0000
  O2          0.05456      0.94168      0.33042  1.0000
  O3          0.09670      0.11421      0.66443  1.0000
  O2          0.12468      0.04600      0.49382  1.0000
  O2          0.00882      0.08729      0.82904  1.0000
  O2          0.96322      0.93150      0.16577  1.0000
  O1          0.38203      0.58562      0.32696  1.0000
  O1          0.47091      0.80561      0.66033  1.0000
  O1          0.24750      0.67564      0.99346  1.0000
  O1          0.67644      0.43813      0.83448  1.0000
  O1          0.61540      0.24758      0.16826  1.0000
  O1          0.80918      0.37407      0.49911  1.0000
  O1          0.57414      0.34297      0.00115  1.0000
  O1          0.80833      0.47419      0.66592  1.0000
  O1          0.71368      0.24387      0.33358  1.0000
  O1          0.47443      0.69864      0.49262  1.0000
  O1          0.26885      0.57919      0.15914  1.0000
  O1          0.35356      0.78495      0.82468  1.0000
  O1          0.12917      0.22591      0.97749  1.0000
  O3          0.83935      0.91347      0.30921  1.0000
  O1          0.13975      0.92596      0.64268  1.0000
  O3          0.93897      0.82981      0.47275  1.0000
  O3          0.22104      0.11477      0.80459  1.0000
  O3          0.94078      0.11565      0.13737  1.0000
  O3          0.26021      0.13523      0.35736  1.0000
  O3          0.91548      0.78656      0.02415  1.0000
  O3          0.91320      0.13377      0.69145  1.0000
  O3          0.80748      0.89379      0.85777  1.0000
  O3          0.13362      0.24804      0.52258  1.0000
  O3          0.15690      0.92274      0.19384  1.0000
  O2          0.97973      0.88852      0.24927  1.0000
  O3          0.15155      0.09396      0.57785  1.0000
  O3          0.95821      0.06626      0.91290  1.0000
  O2          0.08434      0.15417      0.74838  1.0000
  O2          0.90124      0.93400      0.08338  1.0000
  O2          0.10931      0.96521      0.41406  1.0000
  O1          0.89204      0.19164      0.97482  1.0000
  O3          0.86415      0.71766      0.30926  1.0000
  O1          0.34248      0.16122      0.64109  1.0000
  O3          0.15867      0.85299      0.47729  1.0000
  O3          0.20020      0.31306      0.81177  1.0000
  O3          0.73964      0.89885      0.14437  1.0000
  O3          0.24174      0.91663      0.35911  1.0000
  O3          0.72199      0.81907      0.02490  1.0000
  O3          0.13676      0.33175      0.69135  1.0000
  O3          0.81865      0.10872      0.85818  1.0000
  O3          0.33528      0.23258      0.52454  1.0000
  O3          0.94299      0.71751      0.19129  1.0000
  O1          0.36321      0.63741      0.24543  1.0000
  O1          0.41588      0.70209      0.58135  1.0000
  O1          0.31941      0.69544      0.91153  1.0000
  O1          0.73272      0.40193      0.75348  1.0000
  O1          0.65081      0.33781      0.08725  1.0000
  O1          0.71741      0.32415      0.41921  1.0000
  O1          0.37869      0.34241      0.96390  1.0000
  O1          0.71925      0.04729      0.29796  1.0000
  O1          0.02736      0.67392      0.64618  1.0000
  O1          0.68316      0.68893      0.47535  1.0000
  O1          0.36778      0.00722      0.80826  1.0000
  O1          0.04808      0.37037      0.14155  1.0000
  O1          0.37921      0.39290      0.36864  1.0000
  O1          0.05862      0.67266      0.03718  1.0000
  O1          0.65779      0.99287      0.70444  1.0000
  O1          0.65186      0.63869      0.85458  1.0000
  O1          0.99906      0.36794      0.53964  1.0000
  O1          0.41352      0.02313      0.18826  1.0000
  O1          0.75755      0.28150      0.01652  1.0000
  O1          0.77090      0.48696      0.34888  1.0000
  O1          0.56569      0.29608      0.68371  1.0000
  O1          0.29883      0.76178      0.51506  1.0000
  O1          0.33199      0.55845      0.83803  1.0000
  O1          0.49464      0.78529      0.17141  1.0000
  O1          0.32365      0.76550      0.32189  1.0000
  O1          0.48916      0.73692      0.98783  1.0000
  O1          0.27518      0.57413      0.66194  1.0000
  O1          0.70540      0.24365      0.83161  1.0000
  O1          0.58138      0.33972      0.49733  1.0000
  O1          0.81051      0.47057      0.16486  1.0000
  O1          0.79842      0.53160      0.02303  1.0000
  O1          0.51989      0.27462      0.35643  1.0000
  O1          0.77289      0.25075      0.68955  1.0000
  O1          0.25315      0.50802      0.52045  1.0000
  O1          0.54914      0.78879      0.86813  1.0000
  O1          0.26526      0.77139      0.20298  1.0000
  O1          0.57825      0.78538      0.31309  1.0000
  O1          0.25629      0.48424      0.97987  1.0000
  O1          0.28682      0.81683      0.63666  1.0000
  O1          0.48138      0.26510      0.80033  1.0000
  O1          0.82456      0.57119      0.47156  1.0000
  O1          0.79007      0.22642      0.13416  1.0000
  O1          0.21530      0.35731      0.89985  1.0000
  O1          0.69997      0.87061      0.23259  1.0000
  O1          0.12876      0.80613      0.56510  1.0000
  O1          0.81537      0.70632      0.39618  1.0000
  O1          0.34264      0.11282      0.72745  1.0000
  O1          0.93999      0.23960      0.06099  1.0000
  O1          0.38371      0.24027      0.43585  1.0000
  O1          0.89668      0.66664      0.10311  1.0000
  O1          0.81462      0.15748      0.77001  1.0000
  O1          0.69876      0.77369      0.93596  1.0000
  O1          0.17013      0.37490      0.60177  1.0000
  O1          0.28726      0.94010      0.27040  1.0000
  O1          0.57876      0.57076      0.99755  1.0000
  O1          0.49040      0.01865      0.33191  1.0000
  O1          0.00944      0.43605      0.65184  1.0000
  O1          0.44540      0.46482      0.48439  1.0000
  O1          0.58861      0.98489      0.81393  1.0000
  O1          0.06905      0.61317      0.14781  1.0000
  O1          0.61000      0.57604      0.33538  1.0000
  O1          0.00988      0.44479      0.00114  1.0000
  O1          0.48207      0.04653      0.66793  1.0000
  O1          0.43272      0.40307      0.85486  1.0000
  O1          0.04858      0.59936      0.50524  1.0000
  O1          0.65066      0.04014      0.18772  1.0000
  O1          0.59133      0.15584      0.25370  1.0000
  O1          0.89720      0.49872      0.58013  1.0000
  O1          0.61307      0.46488      0.92008  1.0000
  O1          0.41849      0.88608      0.74053  1.0000
  O1          0.16955      0.54546      0.07463  1.0000
  O1          0.50392      0.62669      0.40907  1.0000
  F           0.48196      0.87262      0.25896  1.0000
  F           0.18125      0.61479      0.59193  1.0000
  F           0.43697      0.57719      0.92501  1.0000
  F           0.58717      0.16539      0.75746  1.0000
  F           0.88847      0.43171      0.09049  1.0000
  F           0.62356      0.46673      0.42530  1.0000
