data_cif

_audit_creation_method             'generated by GULP'

_symmetry_space_group_name_H-M     'P 1'
_symmetry_Int_Tables_number        1
_symmetry_cell_setting             triclinic

_cell_length_a                       12.4174
_cell_length_b                       12.4947
_cell_length_c                       30.3493
_cell_angle_alpha                   90.1529
_cell_angle_beta                    89.8931
_cell_angle_gamma                  119.9847

loop_
_atom_site_label
_atom_site_fract_x
_atom_site_fract_y
_atom_site_fract_z
_atom_site_occupancy
  Ge          0.69960      0.37570      0.03389  1.0000
  Ge          0.60393      0.30155      0.36687  1.0000
  Ge          0.67698      0.27888      0.70199  1.0000
  Ge          0.29705      0.60267      0.53651  1.0000
  Ge          0.38685      0.67537      0.86842  1.0000
  Ge          0.31281      0.68634      0.20216  1.0000
  Ge          0.35194      0.66184      0.30168  1.0000
  Ge          0.31436      0.63164      0.96705  1.0000
  Ge          0.32068      0.66844      0.63578  1.0000
  Ge          0.63903      0.31397      0.80048  1.0000
  Ge          0.68159      0.34254      0.46521  1.0000
  Ge          0.66683      0.30409      0.13254  1.0000
  Ge          0.53582      0.43107      0.96936  1.0000
  Ge          0.55424      0.08225      0.30292  1.0000
  Ge          0.89573      0.44778      0.63619  1.0000
  Ge          0.45926      0.54595      0.47192  1.0000
  Ge          0.43609      0.89534      0.80608  1.0000
  Ge          0.09141      0.52336      0.13878  1.0000
  Ge          0.39754      0.48901      0.36679  1.0000
  Ge          0.09613      0.57976      0.03379  1.0000
  Ge          0.49055      0.88848      0.70124  1.0000
  Ge          0.59508      0.49028      0.86453  1.0000
  Ge          0.90067      0.39880      0.53089  1.0000
  Ge          0.50123      0.08263      0.19755  1.0000
  Ge          0.30390      0.40502      0.84574  1.0000
  Ge          0.58552      0.87663      0.18088  1.0000
  Ge          0.10573      0.68323      0.51468  1.0000
  Ge          0.68795      0.57353      0.34651  1.0000
  Ge          0.40305      0.09001      0.68203  1.0000
  Ge          0.89012      0.29196      0.01404  1.0000
  Ge          0.39731      0.26083      0.48224  1.0000
  Ge          0.86714      0.58644      0.14834  1.0000
  Ge          0.72188      0.11372      0.81592  1.0000
  Ge          0.59882      0.71563      0.98094  1.0000
  Ge          0.11872      0.37913      0.64667  1.0000
  Ge          0.26711      0.86243      0.31381  1.0000
  Ge          0.25004      0.34976      0.94910  1.0000
  Ge          0.63770      0.87889      0.28472  1.0000
  Ge          0.10248      0.73513      0.61942  1.0000
  Ge          0.74605      0.62549      0.45005  1.0000
  Ge          0.35308      0.09722      0.78525  1.0000
  Ge          0.88637      0.23885      0.11745  1.0000
  Ge          0.31947      0.20495      0.37912  1.0000
  Ge          0.88882      0.65727      0.04478  1.0000
  Ge          0.77534      0.09412      0.71289  1.0000
  Ge          0.67238      0.77327      0.87785  1.0000
  Ge          0.10944      0.32102      0.54375  1.0000
  Ge          0.21766      0.87438      0.20955  1.0000
  Si          0.97653      0.12816      0.96446  1.0000
  Si          0.85967      0.82818      0.30150  1.0000
  Si          0.14980      0.00673      0.63453  1.0000
  Si          0.02129      0.84823      0.46621  1.0000
  Si          0.13274      0.15190      0.79937  1.0000
  Si          0.83838      0.96813      0.13345  1.0000
  Si          0.09268      0.93229      0.36642  1.0000
  Ge          0.84898      0.89255      0.03192  1.0000
  Si          0.04724      0.13672      0.69972  1.0000
  Si          0.89921      0.04566      0.86507  1.0000
  Ge          0.14714      0.08541      0.53279  1.0000
  Ge          0.94119      0.83516      0.19976  1.0000
  O3          0.93682      0.01903      0.99933  1.0000
  O2          0.96760      0.88925      0.33843  1.0000
  O2          0.08598      0.05356      0.67041  1.0000
  O3          0.05798      0.95778      0.50065  1.0000
  O2          0.01945      0.08955      0.83411  1.0000
  O3          0.90356      0.92914      0.17061  1.0000
  O1          0.31526      0.54190      0.33719  1.0000
  O1          0.43902      0.75270      0.67218  1.0000
  O1          0.22975      0.66462      0.00352  1.0000
  O1          0.67706      0.43766      0.83443  1.0000
  O1          0.54605      0.21459      0.16727  1.0000
  O1          0.77123      0.30949      0.49906  1.0000
  O1          0.56992      0.34097      0.99976  1.0000
  O1          0.76892      0.40609      0.66632  1.0000
  O1          0.64093      0.20731      0.33342  1.0000
  O1          0.42918      0.63745      0.50349  1.0000
  O1          0.21475      0.55415      0.16965  1.0000
  O1          0.34863      0.77146      0.83696  1.0000
  O3          0.12219      0.21926      0.97136  1.0000
  O3          0.76844      0.88301      0.30833  1.0000
  O3          0.09460      0.86109      0.64118  1.0000
  O3          0.87616      0.75319      0.47269  1.0000
  O3          0.22143      0.09548      0.80768  1.0000
  O3          0.88747      0.11221      0.14092  1.0000
  O3          0.18427      0.07707      0.35895  1.0000
  O1          0.90109      0.79105      0.02356  1.0000
  O3          0.90170      0.08395      0.69252  1.0000
  O3          0.80712      0.90110      0.85751  1.0000
  O1          0.09794      0.18802      0.52184  1.0000
  O1          0.09265      0.88115      0.18811  1.0000
  O3          0.92604      0.86328      0.25455  1.0000
  O3          0.11612      0.03400      0.58660  1.0000
  O2          0.94654      0.06967      0.91556  1.0000
  O2          0.07415      0.12078      0.75054  1.0000
  O3          0.87727      0.94331      0.08595  1.0000
  O2          0.05203      0.90693      0.41746  1.0000
  O3          0.90241      0.20075      0.97280  1.0000
  O3          0.78021      0.68057      0.30634  1.0000
  O3          0.29750      0.07606      0.64106  1.0000
  O3          0.09977      0.78010      0.47459  1.0000
  O3          0.21071      0.29875      0.80541  1.0000
  O3          0.68991      0.89009      0.13954  1.0000
  O3          0.16328      0.85907      0.35371  1.0000
  O1          0.69357      0.81720      0.02164  1.0000
  O3          0.12119      0.27992      0.68707  1.0000
  O3          0.82640      0.11862      0.85581  1.0000
  O1          0.30294      0.15809      0.52269  1.0000
  O1          0.85665      0.68116      0.18825  1.0000
  O1          0.31560      0.60589      0.24885  1.0000
  O1          0.37999      0.65837      0.58595  1.0000
  O1          0.29718      0.66841      0.91432  1.0000
  O1          0.67496      0.36517      0.74714  1.0000
  O1          0.61417      0.28855      0.07946  1.0000
  O1          0.69278      0.30370      0.41208  1.0000
  O1          0.37778      0.33679      0.95760  1.0000
  O1          0.64935      0.01848      0.29297  1.0000
  O1          0.99243      0.60589      0.64513  1.0000
  O1          0.61857      0.63714      0.46059  1.0000
  O1          0.34020      0.95785      0.79519  1.0000
  O1          0.02633      0.36593      0.12665  1.0000
  O1          0.32247      0.33227      0.35632  1.0000
  O1          0.01057      0.64941      0.02149  1.0000
  O1          0.64630      0.97475      0.68812  1.0000
  O1          0.66792      0.64655      0.85363  1.0000
  O1          0.96597      0.30583      0.53528  1.0000
  O1          0.34546      0.99505      0.18548  1.0000
  O1          0.76560      0.30792      0.00074  1.0000
  O1          0.67247      0.43384      0.33330  1.0000
  O1          0.54408      0.21220      0.66812  1.0000
  O1          0.24990      0.69790      0.51063  1.0000
  O1          0.31879      0.54486      0.83367  1.0000
  O1          0.44627      0.74934      0.16864  1.0000
  O1          0.25511      0.71981      0.31579  1.0000
  O1          0.46876      0.72936      0.98124  1.0000
  O1          0.23512      0.52429      0.66030  1.0000
  O1          0.73625      0.25726      0.81567  1.0000
  O1          0.52843      0.24884      0.48177  1.0000
  O1          0.72308      0.45636      0.14817  1.0000
  O1          0.75079      0.53557      0.02749  1.0000
  O1          0.44262      0.19299      0.36039  1.0000
  O1          0.78898      0.23112      0.69748  1.0000
  O1          0.22923      0.44577      0.51852  1.0000
  O1          0.54826      0.78606      0.86123  1.0000
  O1          0.20294      0.73651      0.19373  1.0000
  O1          0.50835      0.76441      0.31036  1.0000
  O1          0.26314      0.47672      0.97568  1.0000
  O1          0.24494      0.75249      0.63075  1.0000
  O1          0.48259      0.21353      0.81031  1.0000
  O1          0.73738      0.49820      0.47490  1.0000
  O1          0.76940      0.25133      0.14233  1.0000
  O1          0.22036      0.34779      0.89384  1.0000
  O1          0.64372      0.85228      0.22931  1.0000
  O1          0.07940      0.73719      0.56357  1.0000
  O1          0.77241      0.63011      0.39440  1.0000
  O1          0.34749      0.12088      0.72979  1.0000
  O1          0.86148      0.20730      0.06189  1.0000
  O1          0.30633      0.20256      0.43570  1.0000
  O1          0.89974      0.67503      0.10146  1.0000
  O1          0.77515      0.07713      0.76918  1.0000
  O1          0.68935      0.77400      0.93435  1.0000
  O1          0.14482      0.32140      0.59899  1.0000
  O1          0.21168      0.89008      0.26603  1.0000
  O1          0.55572      0.56623      0.99328  1.0000
  O1          0.41717      0.96850      0.32653  1.0000
  O1          0.97856      0.37235      0.64594  1.0000
  O1          0.43642      0.40908      0.49525  1.0000
  O1          0.57163      0.01157      0.82980  1.0000
  O1          0.97464      0.54448      0.16155  1.0000
  O1          0.54682      0.56826      0.34602  1.0000
  O1          0.02841      0.42965      0.01470  1.0000
  O1          0.40362      0.95285      0.68350  1.0000
  O1          0.44469      0.40964      0.84478  1.0000
  O1          0.99401      0.53375      0.50228  1.0000
  O1          0.58354      0.01330      0.17960  1.0000
  O1          0.51973      0.12112      0.25214  1.0000
  O1          0.85691      0.42872      0.58050  1.0000
  O1          0.61275      0.46945      0.91909  1.0000
  O1          0.47405      0.85450      0.75615  1.0000
  O1          0.13341      0.59945      0.08845  1.0000
  O1          0.38406      0.51274      0.42144  1.0000
  F           0.40389      0.83963      0.23905  1.0000
  F           0.14379      0.54036      0.57388  1.0000
  F           0.44782      0.58474      0.90512  1.0000
  F           0.58368      0.13022      0.74091  1.0000
  F           0.85039      0.43463      0.07280  1.0000
  F           0.54643      0.39316      0.40579  1.0000
