data_cif

_audit_creation_method             'generated by GULP'

_symmetry_space_group_name_H-M     'P 1'
_symmetry_Int_Tables_number        1
_symmetry_cell_setting             triclinic

_cell_length_a                       12.4672
_cell_length_b                       12.4397
_cell_length_c                       30.4217
_cell_angle_alpha                   90.1440
_cell_angle_beta                    90.0869
_cell_angle_gamma                  120.1153

loop_
_atom_site_label
_atom_site_fract_x
_atom_site_fract_y
_atom_site_fract_z
_atom_site_occupancy
  Ge          0.69960      0.37570      0.03389  1.0000
  Ge          0.67115      0.33721      0.36647  1.0000
  Ge          0.71557      0.34884      0.69911  1.0000
  Ge          0.35558      0.65976      0.53325  1.0000
  Ge          0.38270      0.70357      0.86806  1.0000
  Ge          0.34424      0.68403      0.20150  1.0000
  Ge          0.41553      0.71956      0.30033  1.0000
  Ge          0.34311      0.63235      0.96640  1.0000
  Ge          0.32365      0.69995      0.63145  1.0000
  Ge          0.64847      0.32138      0.79821  1.0000
  Ge          0.71339      0.40741      0.46490  1.0000
  Ge          0.72585      0.32683      0.13166  1.0000
  Ge          0.53495      0.42715      0.96599  1.0000
  Ge          0.62227      0.11566      0.30193  1.0000
  Ge          0.93485      0.51543      0.63477  1.0000
  Ge          0.52752      0.61301      0.46769  1.0000
  Ge          0.43981      0.92211      0.80242  1.0000
  Ge          0.12182      0.51766      0.13736  1.0000
  Ge          0.46949      0.55385      0.36328  1.0000
  Ge          0.12510      0.57894      0.03278  1.0000
  Ge          0.49024      0.91892      0.69670  1.0000
  Ge          0.58715      0.48153      0.86160  1.0000
  Ge          0.93227      0.45633      0.53017  1.0000
  Ge          0.56753      0.11072      0.19697  1.0000
  Ge          0.30271      0.42084      0.85094  1.0000
  Ge          0.62924      0.88668      0.18768  1.0000
  Ge          0.15463      0.74737      0.52011  1.0000
  Ge          0.75456      0.62122      0.35188  1.0000
  Ge          0.42584      0.14617      0.68629  1.0000
  Ge          0.90207      0.29004      0.02030  1.0000
  Ge          0.44029      0.32255      0.48567  1.0000
  Ge          0.91738      0.59718      0.15648  1.0000
  Ge          0.72808      0.12905      0.81903  1.0000
  Ge          0.61864      0.71574      0.98445  1.0000
  Ge          0.13369      0.42867      0.65307  1.0000
  Ge          0.33116      0.90891      0.32025  1.0000
  Ge          0.25080      0.34966      0.95376  1.0000
  Ge          0.69951      0.90758      0.29147  1.0000
  Ge          0.14219      0.80211      0.62217  1.0000
  Ge          0.81143      0.69196      0.45482  1.0000
  Ge          0.36468      0.13314      0.78951  1.0000
  Ge          0.91221      0.23112      0.12218  1.0000
  Ge          0.38655      0.26749      0.38293  1.0000
  Ge          0.91833      0.65786      0.05303  1.0000
  Ge          0.78001      0.12783      0.71406  1.0000
  Ge          0.66561      0.76828      0.88193  1.0000
  Ge          0.13685      0.37481      0.54907  1.0000
  Ge          0.28080      0.90478      0.21672  1.0000
  Ge          0.97408      0.11362      0.96761  1.0000
  Si          0.92944      0.86852      0.30405  1.0000
  Si          0.18198      0.07188      0.63397  1.0000
  Si          0.08368      0.92021      0.46848  1.0000
  Ge          0.12812      0.17051      0.80002  1.0000
  Si          0.87182      0.96154      0.13597  1.0000
  Si          0.16447      0.99378      0.36893  1.0000
  Si          0.86728      0.88100      0.03610  1.0000
  Si          0.05243      0.17541      0.69848  1.0000
  Si          0.88993      0.03869      0.86577  1.0000
  Si          0.18964      0.15250      0.53431  1.0000
  Ge          0.00244      0.85576      0.20296  1.0000
  O3          0.94164      0.99104      0.00191  1.0000
  O2          0.04796      0.94370      0.33583  1.0000
  O2          0.09966      0.11230      0.66279  1.0000
  O2          0.12238      0.03883      0.49987  1.0000
  O3          0.00031      0.07847      0.83151  1.0000
  O3          0.95721      0.92685      0.16457  1.0000
  O1          0.37861      0.58787      0.33319  1.0000
  O1          0.45286      0.79392      0.66612  1.0000
  O1          0.25144      0.66624      0.00276  1.0000
  O1          0.68129      0.45295      0.83111  1.0000
  O1          0.59572      0.23071      0.16497  1.0000
  O1          0.80626      0.37112      0.49962  1.0000
  O1          0.58341      0.34330      0.99689  1.0000
  O1          0.80228      0.47143      0.66489  1.0000
  O1          0.70590      0.25071      0.33147  1.0000
  O1          0.47584      0.69541      0.49788  1.0000
  O1          0.25408      0.56015      0.16771  1.0000
  O1          0.34991      0.79382      0.83431  1.0000
  O1          0.12930      0.21458      0.97440  1.0000
  O3          0.83418      0.91712      0.31282  1.0000
  O3          0.13133      0.92754      0.64297  1.0000
  O3          0.93815      0.82826      0.47501  1.0000
  O1          0.23312      0.12440      0.81147  1.0000
  O3          0.91914      0.10575      0.14430  1.0000
  O3          0.25422      0.13874      0.36032  1.0000
  O3          0.92370      0.79067      0.03208  1.0000
  O3          0.90711      0.12321      0.69163  1.0000
  O3          0.79141      0.89514      0.85699  1.0000
  O3          0.13189      0.24083      0.52804  1.0000
  O1          0.15567      0.90834      0.19344  1.0000
  O3          0.97889      0.89852      0.25438  1.0000
  O2          0.16298      0.09542      0.58322  1.0000
  O3          0.94523      0.05739      0.91457  1.0000
  O3          0.07843      0.13926      0.74615  1.0000
  O2          0.88958      0.93840      0.08497  1.0000
  O2          0.11191      0.96888      0.41841  1.0000
  O1          0.89595      0.18981      0.97889  1.0000
  O3          0.85762      0.72120      0.31181  1.0000
  O3          0.32620      0.14901      0.64596  1.0000
  O3          0.15658      0.84852      0.47936  1.0000
  O1          0.19791      0.32576      0.81085  1.0000
  O3          0.72784      0.88046      0.14801  1.0000
  O3          0.23916      0.92198      0.36076  1.0000
  O3          0.72182      0.80791      0.02574  1.0000
  O3          0.12444      0.32376      0.69311  1.0000
  O3          0.82421      0.12063      0.85911  1.0000
  O3          0.33588      0.22997      0.52641  1.0000
  O1          0.92267      0.69772      0.19699  1.0000
  O1          0.33037      0.63313      0.25439  1.0000
  O1          0.41113      0.73014      0.58306  1.0000
  O1          0.34510      0.71931      0.92115  1.0000
  O1          0.71039      0.40574      0.74983  1.0000
  O1          0.64132      0.30102      0.08271  1.0000
  O1          0.70964      0.32006      0.41913  1.0000
  O1          0.38051      0.36164      0.97863  1.0000
  O1          0.69414      0.03141      0.31379  1.0000
  O1          0.99802      0.67416      0.63013  1.0000
  O1          0.68329      0.68237      0.48008  1.0000
  O1          0.34969      0.99077      0.79919  1.0000
  O1          0.05564      0.35857      0.13199  1.0000
  O1          0.37416      0.39513      0.37420  1.0000
  O1          0.02630      0.63873      0.02545  1.0000
  O1          0.65089      0.01076      0.69101  1.0000
  O1          0.67807      0.64082      0.87335  1.0000
  O1          0.02896      0.39434      0.52167  1.0000
  O1          0.40950      0.04399      0.20852  1.0000
  O1          0.78666      0.32088      0.00792  1.0000
  O1          0.76820      0.49097      0.35113  1.0000
  O1          0.56928      0.26952      0.67526  1.0000
  O1          0.27067      0.71766      0.50729  1.0000
  O1          0.28844      0.55084      0.85144  1.0000
  O1          0.49782      0.74346      0.18584  1.0000
  O1          0.34613      0.78388      0.33323  1.0000
  O1          0.47757      0.69653      0.99881  1.0000
  O1          0.27795      0.55707      0.65706  1.0000
  O1          0.73987      0.27136      0.82508  1.0000
  O1          0.58152      0.34095      0.49879  1.0000
  O1          0.77346      0.46806      0.15888  1.0000
  O1          0.77400      0.53461      0.04225  1.0000
  O1          0.51470      0.28055      0.35714  1.0000
  O1          0.79463      0.26721      0.69919  1.0000
  O1          0.28007      0.49950      0.53873  1.0000
  O1          0.53789      0.75974      0.85713  1.0000
  O1          0.28888      0.78487      0.19184  1.0000
  O1          0.57616      0.77174      0.30892  1.0000
  O1          0.23467      0.47295      0.96902  1.0000
  O1          0.25559      0.78961      0.64862  1.0000
  O1          0.49033      0.25418      0.81431  1.0000
  O1          0.82472      0.56737      0.46947  1.0000
  O1          0.79328      0.23592      0.14795  1.0000
  O1          0.24707      0.33045      0.89740  1.0000
  O1          0.71531      0.91569      0.23497  1.0000
  O1          0.18012      0.83316      0.56729  1.0000
  O1          0.80989      0.71002      0.39870  1.0000
  O1          0.36259      0.16267      0.73407  1.0000
  O1          0.88026      0.20255      0.06675  1.0000
  O1          0.38322      0.23625      0.43800  1.0000
  O1          0.94751      0.68189      0.10848  1.0000
  O1          0.78837      0.11314      0.77005  1.0000
  O1          0.67442      0.80319      0.93723  1.0000
  O1          0.10609      0.34806      0.60426  1.0000
  O1          0.24800      0.88031      0.27203  1.0000
  O1          0.62275      0.57996      0.98253  1.0000
  O1          0.47134      0.04568      0.32047  1.0000
  O1          0.02721      0.47446      0.66445  1.0000
  O1          0.44094      0.46088      0.48479  1.0000
  O1          0.57851      0.01369      0.82963  1.0000
  O1          0.02908      0.55755      0.16731  1.0000
  O1          0.60407      0.57353      0.33879  1.0000
  O1          0.04371      0.42148      0.02082  1.0000
  O1          0.42584      0.00968      0.68273  1.0000
  O1          0.45092      0.45969      0.83738  1.0000
  O1          0.01446      0.61475      0.52009  1.0000
  O1          0.58995      0.99537      0.17401  1.0000
  O1          0.64235      0.15324      0.24736  1.0000
  O1          0.89321      0.43905      0.58555  1.0000
  O1          0.55153      0.40440      0.91158  1.0000
  O1          0.46175      0.87778      0.75178  1.0000
  O1          0.16407      0.59328      0.08820  1.0000
  O1          0.50941      0.63256      0.41313  1.0000
  F           0.47557      0.86872      0.26182  1.0000
  F           0.17534      0.61026      0.59273  1.0000
  F           0.44009      0.57666      0.92511  1.0000
  F           0.58702      0.16908      0.75949  1.0000
  F           0.87801      0.41909      0.09434  1.0000
  F           0.61881      0.46427      0.42647  1.0000
