data_cif

_audit_creation_method             'generated by GULP'

_symmetry_space_group_name_H-M     'P 1'
_symmetry_Int_Tables_number        1
_symmetry_cell_setting             triclinic

_cell_length_a                       12.4906
_cell_length_b                       12.4463
_cell_length_c                       30.3559
_cell_angle_alpha                   90.0898
_cell_angle_beta                    89.9424
_cell_angle_gamma                  120.2092

loop_
_atom_site_label
_atom_site_fract_x
_atom_site_fract_y
_atom_site_fract_z
_atom_site_occupancy
  Ge          0.69960      0.37570      0.03389  1.0000
  Ge          0.61056      0.29686      0.36939  1.0000
  Ge          0.68115      0.28650      0.70199  1.0000
  Ge          0.28960      0.59285      0.53377  1.0000
  Ge          0.38809      0.67062      0.86707  1.0000
  Ge          0.31168      0.68791      0.20007  1.0000
  Ge          0.35010      0.65389      0.29879  1.0000
  Ge          0.31618      0.63139      0.96597  1.0000
  Ge          0.32475      0.66924      0.63188  1.0000
  Ge          0.64098      0.31077      0.80136  1.0000
  Ge          0.68131      0.34409      0.46817  1.0000
  Ge          0.67195      0.30929      0.13325  1.0000
  Ge          0.53139      0.42695      0.97112  1.0000
  Ge          0.55343      0.08074      0.30381  1.0000
  Ge          0.90225      0.44945      0.63886  1.0000
  Ge          0.46077      0.54696      0.46773  1.0000
  Ge          0.43832      0.88956      0.80287  1.0000
  Ge          0.09409      0.53158      0.13504  1.0000
  Ge          0.40513      0.48671      0.36286  1.0000
  Ge          0.09493      0.58457      0.03028  1.0000
  Ge          0.49155      0.88996      0.69743  1.0000
  Ge          0.59191      0.48264      0.86590  1.0000
  Ge          0.89790      0.38774      0.53452  1.0000
  Ge          0.50316      0.08679      0.19853  1.0000
  Ge          0.30262      0.39683      0.84621  1.0000
  Ge          0.58396      0.87804      0.17906  1.0000
  Ge          0.10082      0.67701      0.51416  1.0000
  Ge          0.68936      0.56619      0.34520  1.0000
  Ge          0.40832      0.09666      0.68096  1.0000
  Ge          0.88790      0.29229      0.01248  1.0000
  Ge          0.39213      0.25650      0.47970  1.0000
  Ge          0.87260      0.59528      0.14557  1.0000
  Ge          0.72542      0.11037      0.81352  1.0000
  Ge          0.59958      0.71459      0.98111  1.0000
  Ge          0.12403      0.38704      0.64891  1.0000
  Ge          0.26727      0.85639      0.31357  1.0000
  Ge          0.24660      0.34468      0.94993  1.0000
  Ge          0.63470      0.87527      0.28267  1.0000
  Ge          0.10737      0.73426      0.61687  1.0000
  Ge          0.74766      0.62838      0.44922  1.0000
  Ge          0.35515      0.09310      0.78477  1.0000
  Ge          0.88986      0.24477      0.11585  1.0000
  Ge          0.32862      0.20054      0.37728  1.0000
  Ge          0.88743      0.66053      0.04138  1.0000
  Ge          0.77526      0.09744      0.70940  1.0000
  Ge          0.67121      0.76774      0.87751  1.0000
  Ge          0.10294      0.30885      0.54645  1.0000
  Ge          0.21809      0.87711      0.20957  1.0000
  Si          0.97161      0.12423      0.96410  1.0000
  Ge          0.86318      0.82451      0.29858  1.0000
  Si          0.15890      0.00806      0.63133  1.0000
  Si          0.02325      0.85029      0.46527  1.0000
  Si          0.13332      0.14219      0.79989  1.0000
  Ge          0.84136      0.96671      0.13019  1.0000
  Si          0.09888      0.93051      0.36545  1.0000
  Si          0.84726      0.88933      0.02882  1.0000
  Ge          0.05111      0.13685      0.69845  1.0000
  Si          0.89971      0.04036      0.86445  1.0000
  Si          0.14779      0.08172      0.53171  1.0000
  Si          0.95060      0.84004      0.19708  1.0000
  O2          0.92270      0.01001      0.99815  1.0000
  O3          0.97615      0.89436      0.33837  1.0000
  O3          0.08712      0.04834      0.66496  1.0000
  O2          0.06844      0.96240      0.50042  1.0000
  O2          0.02178      0.08070      0.83533  1.0000
  O3          0.91496      0.92554      0.16892  1.0000
  O1          0.31661      0.52989      0.33223  1.0000
  O1          0.44588      0.75793      0.66646  1.0000
  O1          0.22916      0.66672      0.00028  1.0000
  O1          0.67582      0.43079      0.83697  1.0000
  O1          0.55301      0.22172      0.16897  1.0000
  O1          0.76308      0.30724      0.50435  1.0000
  O1          0.56580      0.33768      0.00195  1.0000
  O1          0.77903      0.41906      0.66945  1.0000
  O1          0.64510      0.20017      0.33630  1.0000
  O1          0.41778      0.63000      0.49824  1.0000
  O1          0.21538      0.55879      0.16599  1.0000
  O1          0.35113      0.76459      0.83359  1.0000
  O3          0.11663      0.21383      0.97223  1.0000
  O1          0.76400      0.87978      0.30564  1.0000
  O3          0.10724      0.86344      0.63950  1.0000
  O3          0.87605      0.76384      0.46967  1.0000
  O3          0.22501      0.08921      0.80840  1.0000
  O1          0.89699      0.12131      0.13884  1.0000
  O3          0.19617      0.07379      0.35549  1.0000
  O3          0.89444      0.79345      0.01916  1.0000
  O1          0.89894      0.08821      0.68865  1.0000
  O3          0.80622      0.89525      0.85695  1.0000
  O3          0.09214      0.17204      0.52619  1.0000
  O3          0.09296      0.88324      0.18729  1.0000
  O3          0.93551      0.86374      0.24814  1.0000
  O2          0.13008      0.03312      0.58181  1.0000
  O2          0.94389      0.06704      0.91516  1.0000
  O3          0.07308      0.10456      0.75196  1.0000
  O3          0.87856      0.93662      0.07888  1.0000
  O2          0.06054      0.91068      0.41689  1.0000
  O3          0.90125      0.20037      0.97172  1.0000
  O1          0.78325      0.66674      0.30449  1.0000
  O3          0.30524      0.08622      0.63997  1.0000
  O3          0.08756      0.76906      0.47348  1.0000
  O3          0.21047      0.29054      0.80552  1.0000
  O1          0.68480      0.88893      0.13778  1.0000
  O3          0.16105      0.84887      0.35304  1.0000
  O3          0.70032      0.81871      0.02106  1.0000
  O1          0.13297      0.29301      0.68937  1.0000
  O3          0.83002      0.11489      0.85301  1.0000
  O3          0.29216      0.15567      0.52041  1.0000
  O3          0.86781      0.69481      0.18553  1.0000
  O1          0.31007      0.60161      0.24576  1.0000
  O1          0.37606      0.68388      0.57857  1.0000
  O1          0.30232      0.66956      0.91299  1.0000
  O1          0.67831      0.36755      0.74870  1.0000
  O1          0.61719      0.29076      0.08049  1.0000
  O1          0.66771      0.27189      0.41867  1.0000
  O1          0.37286      0.33196      0.96032  1.0000
  O1          0.64395      0.01345      0.29202  1.0000
  O1          0.96686      0.60746      0.62622  1.0000
  O1          0.61976      0.61085      0.47568  1.0000
  O1          0.34343      0.95297      0.79284  1.0000
  O1          0.02968      0.37425      0.12217  1.0000
  O1          0.31184      0.32732      0.36768  1.0000
  O1          0.00983      0.65510      0.01813  1.0000
  O1          0.64687      0.97670      0.68535  1.0000
  O1          0.66583      0.63942      0.85413  1.0000
  O1          0.98261      0.31700      0.52200  1.0000
  O1          0.34676      0.00184      0.18732  1.0000
  O1          0.76248      0.30645      0.00001  1.0000
  O1          0.70522      0.43797      0.34229  1.0000
  O1          0.54791      0.22387      0.66876  1.0000
  O1          0.22158      0.65661      0.49988  1.0000
  O1          0.31789      0.53705      0.83349  1.0000
  O1          0.44427      0.75141      0.16679  1.0000
  O1          0.25707      0.71385      0.31511  1.0000
  O1          0.46958      0.72761      0.98185  1.0000
  O1          0.26860      0.51606      0.64748  1.0000
  O1          0.73781      0.25374      0.81552  1.0000
  O1          0.53764      0.28730      0.49329  1.0000
  O1          0.72929      0.46394      0.14768  1.0000
  O1          0.75051      0.53630      0.02492  1.0000
  O1          0.45306      0.20683      0.35158  1.0000
  O1          0.79057      0.23607      0.69360  1.0000
  O1          0.24027      0.43276      0.53035  1.0000
  O1          0.54874      0.78063      0.85974  1.0000
  O1          0.20480      0.74106      0.19178  1.0000
  O1          0.50704      0.75380      0.30723  1.0000
  O1          0.26012      0.47460      0.97483  1.0000
  O1          0.22343      0.72266      0.64226  1.0000
  O1          0.48493      0.20789      0.81016  1.0000
  O1          0.76515      0.50400      0.46141  1.0000
  O1          0.77515      0.25740      0.14218  1.0000
  O1          0.21933      0.33977      0.89436  1.0000
  O1          0.64374      0.85376      0.22695  1.0000
  O1          0.13381      0.76472      0.56149  1.0000
  O1          0.74477      0.65079      0.39345  1.0000
  O1          0.34987      0.12029      0.72941  1.0000
  O1          0.85954      0.20893      0.06070  1.0000
  O1          0.33277      0.17052      0.43253  1.0000
  O1          0.89973      0.67982      0.09791  1.0000
  O1          0.78076      0.08199      0.76586  1.0000
  O1          0.68660      0.77059      0.93396  1.0000
  O1          0.08683      0.29308      0.60286  1.0000
  O1          0.21094      0.88533      0.26616  1.0000
  O1          0.55264      0.56410      0.99429  1.0000
  O1          0.41537      0.96588      0.32689  1.0000
  O1          0.01926      0.43160      0.66238  1.0000
  O1          0.38496      0.38907      0.47864  1.0000
  O1          0.57555      0.00430      0.82624  1.0000
  O1          0.97888      0.55271      0.15847  1.0000
  O1          0.53869      0.52702      0.33357  1.0000
  O1          0.02471      0.43263      0.01209  1.0000
  O1          0.40972      0.95931      0.67943  1.0000
  O1          0.44259      0.40120      0.84564  1.0000
  O1          0.96267      0.53905      0.51632  1.0000
  O1          0.58197      0.01574      0.17903  1.0000
  O1          0.52299      0.12435      0.25325  1.0000
  O1          0.86109      0.36864      0.58922  1.0000
  O1          0.60685      0.46264      0.92069  1.0000
  O1          0.47214      0.85039      0.75190  1.0000
  O1          0.13387      0.60842      0.08484  1.0000
  O1          0.43784      0.56250      0.41215  1.0000
  F           0.40344      0.83807      0.23860  1.0000
  F           0.13992      0.53711      0.57348  1.0000
  F           0.44651      0.57944      0.90496  1.0000
  F           0.58988      0.13263      0.73884  1.0000
  F           0.85089      0.43855      0.07100  1.0000
  F           0.55001      0.38947      0.40609  1.0000
