data_cif

_audit_creation_method             'generated by GULP'

_symmetry_space_group_name_H-M     'P 1'
_symmetry_Int_Tables_number        1
_symmetry_cell_setting             triclinic

_cell_length_a                       12.4622
_cell_length_b                       12.4949
_cell_length_c                       30.3105
_cell_angle_alpha                   90.0388
_cell_angle_beta                    90.0149
_cell_angle_gamma                  120.1790

loop_
_atom_site_label
_atom_site_fract_x
_atom_site_fract_y
_atom_site_fract_z
_atom_site_occupancy
  Ge          0.69960      0.37570      0.03389  1.0000
  Ge          0.60555      0.29940      0.36717  1.0000
  Ge          0.68359      0.28146      0.70116  1.0000
  Ge          0.29040      0.59428      0.53237  1.0000
  Ge          0.38558      0.66934      0.86547  1.0000
  Ge          0.31261      0.68685      0.19990  1.0000
  Ge          0.35055      0.65789      0.29944  1.0000
  Ge          0.31698      0.63384      0.96493  1.0000
  Ge          0.32374      0.66351      0.63172  1.0000
  Ge          0.63848      0.30655      0.80005  1.0000
  Ge          0.67544      0.34157      0.46636  1.0000
  Ge          0.67224      0.30155      0.13222  1.0000
  Ge          0.53781      0.43265      0.96962  1.0000
  Ge          0.55520      0.07887      0.30426  1.0000
  Ge          0.90157      0.44282      0.63631  1.0000
  Ge          0.45758      0.54246      0.46882  1.0000
  Ge          0.43513      0.88755      0.80179  1.0000
  Ge          0.09435      0.52148      0.13481  1.0000
  Ge          0.39867      0.48452      0.36341  1.0000
  Ge          0.09531      0.58338      0.02971  1.0000
  Ge          0.49412      0.88633      0.69635  1.0000
  Ge          0.59249      0.48141      0.86459  1.0000
  Ge          0.89616      0.38797      0.53116  1.0000
  Ge          0.50506      0.08318      0.19878  1.0000
  Ge          0.30181      0.39666      0.84591  1.0000
  Ge          0.58700      0.87725      0.18089  1.0000
  Ge          0.10195      0.67856      0.51242  1.0000
  Ge          0.68961      0.57066      0.34504  1.0000
  Ge          0.41262      0.09323      0.67760  1.0000
  Ge          0.88764      0.29455      0.00972  1.0000
  Ge          0.39029      0.25652      0.47994  1.0000
  Ge          0.87274      0.58545      0.14698  1.0000
  Ge          0.72228      0.10627      0.81390  1.0000
  Ge          0.60164      0.71782      0.97821  1.0000
  Ge          0.12348      0.37885      0.64500  1.0000
  Ge          0.26776      0.85845      0.31345  1.0000
  Ge          0.25219      0.35032      0.94955  1.0000
  Ge          0.63728      0.87530      0.28468  1.0000
  Ge          0.10460      0.72827      0.61621  1.0000
  Ge          0.74401      0.62610      0.44888  1.0000
  Ge          0.35233      0.08997      0.78127  1.0000
  Ge          0.89038      0.23670      0.11317  1.0000
  Ge          0.32090      0.20117      0.37609  1.0000
  Ge          0.88818      0.65948      0.04385  1.0000
  Ge          0.77815      0.09332      0.71013  1.0000
  Ge          0.66929      0.76518      0.87406  1.0000
  Ge          0.10308      0.31059      0.54079  1.0000
  Ge          0.22085      0.87647      0.20923  1.0000
  Ge          0.97320      0.12182      0.96314  1.0000
  Si          0.85899      0.82481      0.29942  1.0000
  Ge          0.15483      0.00664      0.62973  1.0000
  Si          0.01884      0.84705      0.46386  1.0000
  Si          0.13253      0.14497      0.79694  1.0000
  Si          0.83610      0.96238      0.13037  1.0000
  Si          0.09304      0.92835      0.36407  1.0000
  Si          0.84455      0.88704      0.03070  1.0000
  Si          0.05007      0.13652      0.69708  1.0000
  Si          0.89791      0.03435      0.86190  1.0000
  Si          0.14287      0.08193      0.52848  1.0000
  Ge          0.94428      0.83517      0.19772  1.0000
  O3          0.93043      0.00871      0.00287  1.0000
  O2          0.96993      0.88621      0.33520  1.0000
  O3          0.08357      0.04965      0.66899  1.0000
  O2          0.06667      0.96079      0.49805  1.0000
  O2          0.01959      0.08021      0.83165  1.0000
  O3          0.90588      0.92485      0.16604  1.0000
  O1          0.31507      0.53553      0.33374  1.0000
  O1          0.44503      0.75205      0.66653  1.0000
  O1          0.22969      0.66796      0.99965  1.0000
  O1          0.67351      0.42661      0.83548  1.0000
  O1          0.55475      0.21659      0.16857  1.0000
  O1          0.76044      0.30638      0.50171  1.0000
  O1          0.56778      0.34186      0.00127  1.0000
  O1          0.78073      0.41264      0.66821  1.0000
  O1          0.64292      0.20299      0.33520  1.0000
  O1          0.42246      0.63166      0.49931  1.0000
  O1          0.21851      0.55669      0.16576  1.0000
  O1          0.34706      0.76279      0.83238  1.0000
  O1          0.12757      0.22032      0.97236  1.0000
  O3          0.76675      0.87712      0.30819  1.0000
  O1          0.09921      0.85273      0.63883  1.0000
  O3          0.87304      0.75809      0.47106  1.0000
  O3          0.22027      0.08689      0.80326  1.0000
  O3          0.89255      0.10846      0.13498  1.0000
  O3          0.18673      0.07244      0.35565  1.0000
  O3          0.89226      0.79107      0.02271  1.0000
  O3          0.90623      0.08991      0.68900  1.0000
  O3          0.80322      0.89096      0.85213  1.0000
  O3          0.09437      0.17664      0.51906  1.0000
  O1          0.09748      0.88666      0.18820  1.0000
  O3          0.92043      0.86306      0.25167  1.0000
  O3          0.11418      0.03524      0.57869  1.0000
  O3          0.94404      0.05154      0.91222  1.0000
  O2          0.07342      0.11939      0.74834  1.0000
  O2          0.86090      0.92495      0.08222  1.0000
  O2          0.04999      0.90480      0.41500  1.0000
  O1          0.89740      0.20299      0.96867  1.0000
  O3          0.78231      0.67690      0.30450  1.0000
  O1          0.31202      0.08371      0.63618  1.0000
  O3          0.08805      0.77020      0.47190  1.0000
  O3          0.21102      0.29108      0.80509  1.0000
  O3          0.68978      0.88984      0.13936  1.0000
  O3          0.16242      0.85329      0.35293  1.0000
  O3          0.70083      0.82317      0.01786  1.0000
  O3          0.13042      0.28010      0.68447  1.0000
  O3          0.82613      0.10921      0.85376  1.0000
  O3          0.28978      0.15327      0.52002  1.0000
  O1          0.86492      0.68000      0.18744  1.0000
  O1          0.31356      0.60425      0.24627  1.0000
  O1          0.37547      0.68018      0.57849  1.0000
  O1          0.29998      0.66809      0.91162  1.0000
  O1          0.68012      0.36314      0.74748  1.0000
  O1          0.61659      0.28637      0.07950  1.0000
  O1          0.69162      0.30337      0.41353  1.0000
  O1          0.38068      0.33904      0.95703  1.0000
  O1          0.64952      0.01479      0.29379  1.0000
  O1          0.96474      0.59949      0.62387  1.0000
  O1          0.61640      0.63772      0.45823  1.0000
  O1          0.34034      0.95112      0.79151  1.0000
  O1          0.03033      0.36390      0.12323  1.0000
  O1          0.32533      0.32795      0.35215  1.0000
  O1          0.01102      0.65584      0.01962  1.0000
  O1          0.65123      0.97098      0.68579  1.0000
  O1          0.66367      0.63660      0.85135  1.0000
  O1          0.97975      0.31629      0.51823  1.0000
  O1          0.34989      0.99777      0.18577  1.0000
  O1          0.76101      0.30792      0.99872  1.0000
  O1          0.67593      0.43111      0.33294  1.0000
  O1          0.55257      0.22049      0.66669  1.0000
  O1          0.22650      0.66345      0.49903  1.0000
  O1          0.31700      0.53592      0.83222  1.0000
  O1          0.44737      0.75201      0.16737  1.0000
  O1          0.25440      0.71512      0.31453  1.0000
  O1          0.47153      0.73124      0.97931  1.0000
  O1          0.26710      0.50966      0.64618  1.0000
  O1          0.73404      0.24875      0.81555  1.0000
  O1          0.52115      0.24474      0.48132  1.0000
  O1          0.72940      0.45491      0.14712  1.0000
  O1          0.75091      0.53624      0.02715  1.0000
  O1          0.44472      0.18907      0.35907  1.0000
  O1          0.79238      0.23017      0.69359  1.0000
  O1          0.23922      0.43402      0.52351  1.0000
  O1          0.54615      0.77821      0.85679  1.0000
  O1          0.20468      0.73865      0.19228  1.0000
  O1          0.50660      0.75939      0.30919  1.0000
  O1          0.26537      0.47908      0.97492  1.0000
  O1          0.22043      0.71511      0.64153  1.0000
  O1          0.48093      0.20624      0.80694  1.0000
  O1          0.73045      0.49782      0.47467  1.0000
  O1          0.77446      0.24762      0.13935  1.0000
  O1          0.21785      0.34317      0.89410  1.0000
  O1          0.64397      0.85046      0.22906  1.0000
  O1          0.13165      0.76182      0.56074  1.0000
  O1          0.77226      0.62890      0.39338  1.0000
  O1          0.34845      0.11241      0.72556  1.0000
  O1          0.86687      0.21033      0.05748  1.0000
  O1          0.30412      0.19977      0.43256  1.0000
  O1          0.90486      0.67567      0.10038  1.0000
  O1          0.77867      0.07685      0.76655  1.0000
  O1          0.68763      0.77317      0.93065  1.0000
  O1          0.09315      0.29315      0.59742  1.0000
  O1          0.21358      0.88895      0.26580  1.0000
  O1          0.55851      0.56953      0.99226  1.0000
  O1          0.41746      0.96344      0.32706  1.0000
  O1          0.01793      0.42181      0.65882  1.0000
  O1          0.43630      0.40661      0.49256  1.0000
  O1          0.57132      0.00196      0.82598  1.0000
  O1          0.97919      0.54181      0.15884  1.0000
  O1          0.54871      0.56493      0.34351  1.0000
  O1          0.02457      0.43463      0.00889  1.0000
  O1          0.41546      0.95669      0.67610  1.0000
  O1          0.44106      0.39875      0.84627  1.0000
  O1          0.96494      0.53879      0.51255  1.0000
  O1          0.58800      0.01532      0.18063  1.0000
  O1          0.52179      0.11990      0.25351  1.0000
  O1          0.85976      0.36606      0.58597  1.0000
  O1          0.61529      0.46856      0.91944  1.0000
  O1          0.47061      0.84892      0.75103  1.0000
  O1          0.13375      0.59748      0.08435  1.0000
  O1          0.38275      0.50578      0.41812  1.0000
  F           0.40473      0.83948      0.23847  1.0000
  F           0.14082      0.53280      0.57031  1.0000
  F           0.44719      0.58115      0.90372  1.0000
  F           0.58910      0.12858      0.73772  1.0000
  F           0.85200      0.43409      0.07048  1.0000
  F           0.54500      0.39012      0.40390  1.0000
