data_cif

_audit_creation_method             'generated by GULP'

_symmetry_space_group_name_H-M     'P 1'
_symmetry_Int_Tables_number        1
_symmetry_cell_setting             triclinic

_cell_length_a                       12.4943
_cell_length_b                       12.4437
_cell_length_c                       30.3790
_cell_angle_alpha                   90.1163
_cell_angle_beta                    90.0989
_cell_angle_gamma                  119.9012

loop_
_atom_site_label
_atom_site_fract_x
_atom_site_fract_y
_atom_site_fract_z
_atom_site_occupancy
  Ge          0.69960      0.37570      0.03389  1.0000
  Ge          0.67202      0.33470      0.36774  1.0000
  Ge          0.71114      0.34773      0.70063  1.0000
  Ge          0.35136      0.66368      0.53122  1.0000
  Ge          0.38296      0.70080      0.86567  1.0000
  Ge          0.34691      0.69450      0.19728  1.0000
  Ge          0.41253      0.71865      0.29659  1.0000
  Ge          0.34133      0.63345      0.96458  1.0000
  Ge          0.32700      0.70383      0.63072  1.0000
  Ge          0.63952      0.31455      0.79925  1.0000
  Ge          0.71325      0.41353      0.46599  1.0000
  Ge          0.73740      0.33676      0.13181  1.0000
  Ge          0.52952      0.42461      0.96851  1.0000
  Ge          0.61611      0.11462      0.30257  1.0000
  Ge          0.93089      0.51545      0.63537  1.0000
  Ge          0.52484      0.61859      0.46609  1.0000
  Ge          0.43447      0.91869      0.79934  1.0000
  Ge          0.12781      0.52303      0.13173  1.0000
  Ge          0.46797      0.55568      0.36095  1.0000
  Ge          0.12106      0.57878      0.02730  1.0000
  Ge          0.49178      0.92444      0.69434  1.0000
  Ge          0.58327      0.47823      0.86359  1.0000
  Ge          0.93209      0.46235      0.53006  1.0000
  Ge          0.56711      0.11881      0.19738  1.0000
  Ge          0.29841      0.41606      0.85255  1.0000
  Ge          0.63588      0.89625      0.18679  1.0000
  Ge          0.15093      0.74886      0.51928  1.0000
  Ge          0.75332      0.61810      0.35072  1.0000
  Ge          0.42821      0.14801      0.68506  1.0000
  Ge          0.89960      0.29401      0.01704  1.0000
  Ge          0.44120      0.32929      0.48615  1.0000
  Ge          0.92608      0.60994      0.15219  1.0000
  Ge          0.72236      0.12419      0.81931  1.0000
  Ge          0.61222      0.71464      0.98626  1.0000
  Ge          0.13752      0.43207      0.65183  1.0000
  Ge          0.33212      0.90990      0.31848  1.0000
  Ge          0.24717      0.34969      0.95615  1.0000
  Ge          0.69383      0.90599      0.28962  1.0000
  Ge          0.13842      0.79840      0.62352  1.0000
  Ge          0.80916      0.69712      0.45376  1.0000
  Ge          0.35779      0.12643      0.78864  1.0000
  Ge          0.92205      0.23850      0.11946  1.0000
  Ge          0.38874      0.26968      0.38266  1.0000
  Ge          0.91752      0.65891      0.04932  1.0000
  Ge          0.77630      0.12866      0.71590  1.0000
  Ge          0.66491      0.76470      0.88300  1.0000
  Ge          0.13539      0.37861      0.54813  1.0000
  Ge          0.28018      0.91260      0.21378  1.0000
  Ge          0.97131      0.11571      0.96718  1.0000
  Ge          0.92900      0.86755      0.30048  1.0000
  Ge          0.18011      0.07525      0.63279  1.0000
  Si          0.08181      0.92337      0.46653  1.0000
  Ge          0.12294      0.16683      0.79993  1.0000
  Si          0.87857      0.96715      0.13377  1.0000
  Si          0.16664      0.99417      0.36690  1.0000
  Si          0.86292      0.87886      0.03441  1.0000
  Si          0.04881      0.17974      0.69865  1.0000
  Si          0.88707      0.03581      0.86604  1.0000
  Si          0.18698      0.15682      0.53119  1.0000
  Si          0.00815      0.86421      0.19891  1.0000
  O3          0.92901      0.98700      0.99895  1.0000
  O3          0.05692      0.95655      0.33247  1.0000
  O3          0.08638      0.11717      0.65998  1.0000
  O2          0.12532      0.04914      0.49412  1.0000
  O3          0.98902      0.07492      0.82814  1.0000
  O2          0.96068      0.92731      0.16312  1.0000
  O1          0.37738      0.58658      0.32932  1.0000
  O1          0.45971      0.80153      0.66305  1.0000
  O1          0.24412      0.66937      0.99659  1.0000
  O1          0.67370      0.44460      0.83313  1.0000
  O1          0.61022      0.24526      0.16730  1.0000
  O1          0.80728      0.37647      0.49938  1.0000
  O1          0.57770      0.34074      0.99949  1.0000
  O1          0.79902      0.46841      0.66593  1.0000
  O1          0.70518      0.24436      0.33421  1.0000
  O1          0.47130      0.70031      0.49573  1.0000
  O1          0.26338      0.57552      0.16101  1.0000
  O1          0.34983      0.78521      0.82933  1.0000
  O1          0.12356      0.21734      0.97731  1.0000
  O1          0.82674      0.91725      0.31148  1.0000
  O1          0.13209      0.92397      0.64478  1.0000
  O3          0.93694      0.83247      0.47377  1.0000
  O1          0.22484      0.11617      0.81006  1.0000
  O3          0.93275      0.11295      0.14004  1.0000
  O3          0.26092      0.13904      0.36045  1.0000
  O3          0.91764      0.78849      0.02706  1.0000
  O3          0.90350      0.12691      0.69322  1.0000
  O3          0.79481      0.89008      0.85994  1.0000
  O3          0.13096      0.24716      0.52506  1.0000
  O3          0.15378      0.91993      0.19217  1.0000
  O3          0.98035      0.89810      0.24672  1.0000
  O3          0.15450      0.08927      0.57771  1.0000
  O3          0.95456      0.06743      0.91287  1.0000
  O3          0.08318      0.14343      0.74477  1.0000
  O2          0.89351      0.93930      0.08300  1.0000
  O2          0.10777      0.96309      0.41553  1.0000
  O1          0.89078      0.19068      0.97657  1.0000
  O1          0.85599      0.71218      0.31041  1.0000
  O1          0.33361      0.15839      0.64517  1.0000
  O3          0.15431      0.85242      0.47954  1.0000
  O1          0.19457      0.32062      0.81248  1.0000
  O3          0.73567      0.89457      0.14650  1.0000
  O3          0.23553      0.91649      0.35853  1.0000
  O3          0.71624      0.80587      0.02737  1.0000
  O3          0.12281      0.32795      0.69308  1.0000
  O3          0.81207      0.10897      0.86037  1.0000
  O3          0.33428      0.23734      0.52612  1.0000
  O3          0.94034      0.71668      0.19277  1.0000
  O1          0.35679      0.63592      0.24711  1.0000
  O1          0.40719      0.70050      0.58402  1.0000
  O1          0.34682      0.72024      0.91839  1.0000
  O1          0.72672      0.39977      0.75381  1.0000
  O1          0.64986      0.34009      0.08723  1.0000
  O1          0.71140      0.32466      0.42080  1.0000
  O1          0.37459      0.35604      0.98017  1.0000
  O1          0.70896      0.04917      0.29823  1.0000
  O1          0.01731      0.67116      0.64735  1.0000
  O1          0.68164      0.69430      0.47639  1.0000
  O1          0.36428      0.00393      0.81152  1.0000
  O1          0.04224      0.36728      0.14398  1.0000
  O1          0.37693      0.39665      0.37179  1.0000
  O1          0.05724      0.67276      0.03940  1.0000
  O1          0.64929      0.98928      0.70619  1.0000
  O1          0.67656      0.63624      0.87517  1.0000
  O1          0.99593      0.36740      0.53979  1.0000
  O1          0.40909      0.02302      0.18830  1.0000
  O1          0.75587      0.27878      0.01837  1.0000
  O1          0.76516      0.48710      0.35101  1.0000
  O1          0.55856      0.29131      0.68532  1.0000
  O1          0.29330      0.76026      0.51721  1.0000
  O1          0.28577      0.54675      0.85166  1.0000
  O1          0.49117      0.77983      0.17298  1.0000
  O1          0.31752      0.76611      0.32250  1.0000
  O1          0.47310      0.70158      0.99855  1.0000
  O1          0.26446      0.57105      0.66419  1.0000
  O1          0.70731      0.24914      0.83262  1.0000
  O1          0.58096      0.34509      0.49940  1.0000
  O1          0.80500      0.46881      0.16607  1.0000
  O1          0.80100      0.53081      0.02391  1.0000
  O1          0.51626      0.27830      0.35800  1.0000
  O1          0.76413      0.24535      0.69096  1.0000
  O1          0.24937      0.50748      0.52248  1.0000
  O1          0.53765      0.75190      0.85684  1.0000
  O1          0.26338      0.77080      0.20198  1.0000
  O1          0.56920      0.78649      0.31465  1.0000
  O1          0.23213      0.47322      0.97207  1.0000
  O1          0.27610      0.81291      0.63943  1.0000
  O1          0.47969      0.26358      0.80609  1.0000
  O1          0.82118      0.57450      0.47257  1.0000
  O1          0.78539      0.22503      0.13538  1.0000
  O1          0.24177      0.32902      0.89962  1.0000
  O1          0.69368      0.87055      0.23441  1.0000
  O1          0.12304      0.80407      0.56708  1.0000
  O1          0.81158      0.70923      0.39722  1.0000
  O1          0.34026      0.11570      0.73199  1.0000
  O1          0.93718      0.23805      0.06303  1.0000
  O1          0.38454      0.24479      0.43829  1.0000
  O1          0.89352      0.66426      0.10474  1.0000
  O1          0.80683      0.15302      0.77144  1.0000
  O1          0.66978      0.79821      0.93825  1.0000
  O1          0.16243      0.37402      0.60346  1.0000
  O1          0.27791      0.93543      0.26961  1.0000
  O1          0.61097      0.57590      0.98686  1.0000
  O1          0.48129      0.02154      0.33102  1.0000
  O1          0.00081      0.43395      0.65312  1.0000
  O1          0.44625      0.46999      0.48685  1.0000
  O1          0.58424      0.98682      0.81862  1.0000
  O1          0.06300      0.60895      0.15019  1.0000
  O1          0.60507      0.57885      0.33774  1.0000
  O1          0.00419      0.44351      0.00367  1.0000
  O1          0.47023      0.04065      0.67180  1.0000
  O1          0.44714      0.45686      0.84000  1.0000
  O1          0.04517      0.59905      0.50655  1.0000
  O1          0.64235      0.03595      0.18758  1.0000
  O1          0.58588      0.15773      0.25302  1.0000
  O1          0.89248      0.49649      0.58081  1.0000
  O1          0.54784      0.40318      0.91407  1.0000
  O1          0.41603      0.88206      0.74464  1.0000
  O1          0.16248      0.54038      0.07691  1.0000
  O1          0.50034      0.63064      0.41149  1.0000
  F           0.47469      0.87155      0.25934  1.0000
  F           0.17371      0.61264      0.59389  1.0000
  F           0.43229      0.57114      0.92748  1.0000
  F           0.58055      0.16449      0.76061  1.0000
  F           0.88499      0.42965      0.09255  1.0000
  F           0.62127      0.47019      0.42702  1.0000
