data_cif

_audit_creation_method             'generated by GULP'

_symmetry_space_group_name_H-M     'P 1'
_symmetry_Int_Tables_number        1
_symmetry_cell_setting             triclinic

_cell_length_a                       12.4698
_cell_length_b                       12.5148
_cell_length_c                       30.3358
_cell_angle_alpha                   89.8861
_cell_angle_beta                    90.0777
_cell_angle_gamma                  120.0982

loop_
_atom_site_label
_atom_site_fract_x
_atom_site_fract_y
_atom_site_fract_z
_atom_site_occupancy
  Ge          0.69960      0.37570      0.03389  1.0000
  Ge          0.60216      0.29683      0.36619  1.0000
  Ge          0.67706      0.27865      0.70019  1.0000
  Ge          0.29047      0.59315      0.53276  1.0000
  Ge          0.38357      0.66621      0.86602  1.0000
  Ge          0.31012      0.68459      0.20025  1.0000
  Ge          0.34866      0.65653      0.29980  1.0000
  Ge          0.31542      0.62970      0.96544  1.0000
  Ge          0.32059      0.66344      0.63170  1.0000
  Ge          0.63855      0.30590      0.79966  1.0000
  Ge          0.67665      0.33892      0.46478  1.0000
  Ge          0.67060      0.30003      0.13215  1.0000
  Ge          0.53669      0.43021      0.96884  1.0000
  Ge          0.55224      0.07635      0.30358  1.0000
  Ge          0.89722      0.44322      0.63625  1.0000
  Ge          0.45639      0.53993      0.46870  1.0000
  Ge          0.43560      0.88596      0.80293  1.0000
  Ge          0.09188      0.51827      0.13566  1.0000
  Ge          0.39532      0.48184      0.36361  1.0000
  Ge          0.09515      0.58175      0.03060  1.0000
  Ge          0.48724      0.88322      0.69742  1.0000
  Ge          0.59199      0.48050      0.86370  1.0000
  Ge          0.89456      0.38786      0.53109  1.0000
  Ge          0.50198      0.08070      0.19815  1.0000
  Ge          0.30068      0.39507      0.84551  1.0000
  Ge          0.58371      0.87468      0.18094  1.0000
  Ge          0.10082      0.67596      0.51221  1.0000
  Ge          0.68531      0.56734      0.34406  1.0000
  Ge          0.40400      0.08888      0.67977  1.0000
  Ge          0.88765      0.29427      0.01049  1.0000
  Ge          0.39300      0.25520      0.47950  1.0000
  Ge          0.87084      0.58294      0.14750  1.0000
  Ge          0.72296      0.10601      0.81305  1.0000
  Ge          0.60093      0.71500      0.97804  1.0000
  Ge          0.12041      0.38039      0.64628  1.0000
  Ge          0.26548      0.85678      0.31315  1.0000
  Ge          0.25074      0.34691      0.94924  1.0000
  Ge          0.63480      0.87324      0.28466  1.0000
  Ge          0.10200      0.72820      0.61573  1.0000
  Ge          0.74115      0.62114      0.44769  1.0000
  Ge          0.35278      0.08924      0.78362  1.0000
  Ge          0.88822      0.23422      0.11381  1.0000
  Ge          0.31780      0.19867      0.37638  1.0000
  Ge          0.88837      0.65836      0.04442  1.0000
  Ge          0.77102      0.09067      0.70868  1.0000
  Ge          0.66783      0.76364      0.87384  1.0000
  Ge          0.10133      0.31110      0.54258  1.0000
  Ge          0.21838      0.87415      0.20895  1.0000
  Ge          0.97101      0.11960      0.96415  1.0000
  Si          0.85655      0.82260      0.29942  1.0000
  Si          0.15185      0.99967      0.63202  1.0000
  Si          0.01586      0.84124      0.46339  1.0000
  Si          0.13154      0.14071      0.79966  1.0000
  Si          0.83271      0.95925      0.13072  1.0000
  Si          0.09072      0.92650      0.36401  1.0000
  Si          0.84312      0.88457      0.03124  1.0000
  Ge          0.04728      0.13150      0.69797  1.0000
  Si          0.89567      0.03266      0.86306  1.0000
  Ge          0.14344      0.07746      0.53051  1.0000
  Ge          0.94169      0.83221      0.19790  1.0000
  O3          0.92931      0.00832      0.00457  1.0000
  O2          0.96659      0.88294      0.33557  1.0000
  O3          0.08657      0.03862      0.66905  1.0000
  O3          0.05553      0.94840      0.49910  1.0000
  O2          0.02290      0.07968      0.83621  1.0000
  O3          0.90172      0.92141      0.16665  1.0000
  O1          0.31242      0.53419      0.33421  1.0000
  O1          0.44002      0.75075      0.66708  1.0000
  O1          0.22972      0.66461      0.00059  1.0000
  O1          0.67377      0.42717      0.83437  1.0000
  O1          0.55185      0.21394      0.16791  1.0000
  O1          0.76155      0.30460      0.50045  1.0000
  O1          0.56866      0.34130      0.00076  1.0000
  O1          0.77367      0.41011      0.66707  1.0000
  O1          0.63921      0.20062      0.33426  1.0000
  O1          0.42163      0.62873      0.49944  1.0000
  O1          0.21576      0.55370      0.16674  1.0000
  O1          0.34648      0.76207      0.83367  1.0000
  O1          0.12629      0.21602      0.97160  1.0000
  O3          0.76483      0.87560      0.30791  1.0000
  O3          0.10024      0.85488      0.63872  1.0000
  O3          0.87007      0.75129      0.46950  1.0000
  O3          0.22268      0.08653      0.80686  1.0000
  O3          0.88967      0.10518      0.13515  1.0000
  O3          0.18336      0.07074      0.35594  1.0000
  O3          0.89272      0.79021      0.02337  1.0000
  O1          0.89523      0.08276      0.68732  1.0000
  O3          0.80048      0.89057      0.85189  1.0000
  O1          0.09109      0.17814      0.52143  1.0000
  O1          0.09458      0.88370      0.18797  1.0000
  O3          0.91948      0.86063      0.25194  1.0000
  O3          0.11584      0.02876      0.58475  1.0000
  O3          0.93268      0.04465      0.91424  1.0000
  O3          0.06622      0.10565      0.75262  1.0000
  O2          0.85680      0.92019      0.08288  1.0000
  O2          0.04999      0.90375      0.41517  1.0000
  O1          0.89832      0.20359      0.96956  1.0000
  O3          0.77842      0.67485      0.30399  1.0000
  O3          0.29976      0.07500      0.63847  1.0000
  O3          0.08797      0.76690      0.47109  1.0000
  O3          0.20954      0.28810      0.80520  1.0000
  O3          0.68652      0.88761      0.13950  1.0000
  O3          0.16049      0.85225      0.35255  1.0000
  O3          0.70007      0.82000      0.01759  1.0000
  O1          0.12978      0.28531      0.68617  1.0000
  O3          0.82813      0.11040      0.85263  1.0000
  O1          0.29839      0.15297      0.52004  1.0000
  O1          0.86274      0.67732      0.18780  1.0000
  O1          0.31183      0.60281      0.24676  1.0000
  O1          0.37404      0.67995      0.57867  1.0000
  O1          0.29782      0.66413      0.91224  1.0000
  O1          0.67592      0.36053      0.74670  1.0000
  O1          0.61600      0.28651      0.07940  1.0000
  O1          0.69202      0.30262      0.41175  1.0000
  O1          0.37961      0.33629      0.95687  1.0000
  O1          0.64676      0.01246      0.29355  1.0000
  O1          0.96220      0.60083      0.62462  1.0000
  O1          0.61434      0.63411      0.45728  1.0000
  O1          0.34155      0.95052      0.79266  1.0000
  O1          0.02776      0.36087      0.12438  1.0000
  O1          0.32180      0.32554      0.35264  1.0000
  O1          0.01169      0.65510      0.02050  1.0000
  O1          0.64278      0.96892      0.68531  1.0000
  O1          0.66341      0.63594      0.85113  1.0000
  O1          0.97956      0.31786      0.51911  1.0000
  O1          0.34689      0.99527      0.18531  1.0000
  O1          0.76166      0.30823      0.99908  1.0000
  O1          0.67024      0.42772      0.33158  1.0000
  O1          0.54323      0.21526      0.66708  1.0000
  O1          0.22579      0.66122      0.49927  1.0000
  O1          0.31435      0.53390      0.83233  1.0000
  O1          0.44444      0.74946      0.16760  1.0000
  O1          0.25255      0.71389      0.31465  1.0000
  O1          0.47009      0.72703      0.97941  1.0000
  O1          0.26389      0.51059      0.64661  1.0000
  O1          0.73448      0.24836      0.81477  1.0000
  O1          0.52274      0.24184      0.47935  1.0000
  O1          0.72775      0.45262      0.14753  1.0000
  O1          0.75159      0.53592      0.02736  1.0000
  O1          0.44120      0.18647      0.35907  1.0000
  O1          0.78560      0.22769      0.69192  1.0000
  O1          0.23916      0.43342      0.52574  1.0000
  O1          0.54391      0.77540      0.85683  1.0000
  O1          0.20243      0.73651      0.19233  1.0000
  O1          0.50454      0.75788      0.30942  1.0000
  O1          0.26368      0.47488      0.97492  1.0000
  O1          0.21779      0.71551      0.64106  1.0000
  O1          0.48240      0.20488      0.80860  1.0000
  O1          0.72855      0.49377      0.47370  1.0000
  O1          0.77192      0.24511      0.13959  1.0000
  O1          0.21756      0.34096      0.89385  1.0000
  O1          0.64092      0.84814      0.22912  1.0000
  O1          0.12806      0.75979      0.56021  1.0000
  O1          0.76867      0.62386      0.39220  1.0000
  O1          0.34657      0.11428      0.72806  1.0000
  O1          0.86605      0.20935      0.05811  1.0000
  O1          0.30225      0.19742      0.43293  1.0000
  O1          0.90364      0.67345      0.10094  1.0000
  O1          0.77825      0.07818      0.76525  1.0000
  O1          0.68595      0.77017      0.93040  1.0000
  O1          0.08880      0.29255      0.59924  1.0000
  O1          0.21122      0.88690      0.26545  1.0000
  O1          0.55812      0.56672      0.99166  1.0000
  O1          0.41492      0.96167      0.32663  1.0000
  O1          0.01294      0.42184      0.65925  1.0000
  O1          0.43618      0.40432      0.49219  1.0000
  O1          0.57320      0.00048      0.82597  1.0000
  O1          0.97688      0.53890      0.15950  1.0000
  O1          0.54467      0.56202      0.34321  1.0000
  O1          0.02458      0.43363      0.00978  1.0000
  O1          0.40577      0.95232      0.67889  1.0000
  O1          0.44093      0.39927      0.84514  1.0000
  O1          0.96315      0.53799      0.51216  1.0000
  O1          0.58457      0.01246      0.18030  1.0000
  O1          0.51865      0.11712      0.25283  1.0000
  O1          0.85629      0.36811      0.58569  1.0000
  O1          0.61312      0.46530      0.91852  1.0000
  O1          0.46858      0.84572      0.75208  1.0000
  O1          0.13242      0.59459      0.08526  1.0000
  O1          0.38006      0.50296      0.41833  1.0000
  F           0.40216      0.83736      0.23845  1.0000
  F           0.13876      0.53299      0.57087  1.0000
  F           0.44541      0.57831      0.90345  1.0000
  F           0.58604      0.12665      0.73785  1.0000
  F           0.85142      0.43281      0.07099  1.0000
  F           0.54268      0.38711      0.40335  1.0000
