data_cif

_audit_creation_method             'generated by GULP'

_symmetry_space_group_name_H-M     'P 1'
_symmetry_Int_Tables_number        1
_symmetry_cell_setting             triclinic

_cell_length_a                       12.4737
_cell_length_b                       12.4889
_cell_length_c                       30.4149
_cell_angle_alpha                   89.8639
_cell_angle_beta                    90.2325
_cell_angle_gamma                  120.1403

loop_
_atom_site_label
_atom_site_fract_x
_atom_site_fract_y
_atom_site_fract_z
_atom_site_occupancy
  Ge          0.69960      0.37570      0.03389  1.0000
  Ge          0.60373      0.29733      0.36661  1.0000
  Ge          0.67870      0.27778      0.70055  1.0000
  Ge          0.29269      0.59184      0.53411  1.0000
  Ge          0.38146      0.66979      0.86793  1.0000
  Ge          0.31005      0.68319      0.20139  1.0000
  Ge          0.35068      0.65805      0.30069  1.0000
  Ge          0.31492      0.62850      0.96693  1.0000
  Ge          0.32085      0.66048      0.63281  1.0000
  Ge          0.64078      0.30905      0.79895  1.0000
  Ge          0.67766      0.33686      0.46533  1.0000
  Ge          0.66923      0.29921      0.13187  1.0000
  Ge          0.53620      0.42843      0.96813  1.0000
  Ge          0.55438      0.07833      0.30302  1.0000
  Ge          0.89619      0.43717      0.63428  1.0000
  Ge          0.45921      0.54104      0.47036  1.0000
  Ge          0.43849      0.88714      0.80370  1.0000
  Ge          0.09106      0.51734      0.13709  1.0000
  Ge          0.39917      0.48530      0.36491  1.0000
  Ge          0.09615      0.58164      0.03245  1.0000
  Ge          0.48829      0.88127      0.69916  1.0000
  Ge          0.59143      0.48136      0.86330  1.0000
  Ge          0.89943      0.38773      0.52891  1.0000
  Ge          0.50170      0.07990      0.19785  1.0000
  Ge          0.30114      0.40020      0.84527  1.0000
  Ge          0.58327      0.87301      0.18135  1.0000
  Ge          0.10209      0.67277      0.51157  1.0000
  Ge          0.68890      0.57029      0.34605  1.0000
  Ge          0.40598      0.08727      0.67992  1.0000
  Ge          0.88824      0.29414      0.01167  1.0000
  Ge          0.39311      0.25466      0.48060  1.0000
  Ge          0.86996      0.58190      0.14813  1.0000
  Ge          0.72369      0.10841      0.81373  1.0000
  Ge          0.60069      0.71355      0.97890  1.0000
  Ge          0.11771      0.37008      0.64384  1.0000
  Ge          0.26739      0.85867      0.31339  1.0000
  Ge          0.25017      0.34541      0.94847  1.0000
  Ge          0.63669      0.87451      0.28481  1.0000
  Ge          0.10243      0.72340      0.61602  1.0000
  Ge          0.74606      0.62258      0.44981  1.0000
  Ge          0.35700      0.09013      0.78263  1.0000
  Ge          0.88674      0.23316      0.11455  1.0000
  Ge          0.32013      0.20074      0.37708  1.0000
  Ge          0.88943      0.65836      0.04543  1.0000
  Ge          0.77294      0.09000      0.71042  1.0000
  Ge          0.66524      0.76436      0.87507  1.0000
  Ge          0.10732      0.30875      0.54119  1.0000
  Ge          0.21806      0.87311      0.20943  1.0000
  Ge          0.97020      0.11868      0.96475  1.0000
  Si          0.85857      0.82413      0.29999  1.0000
  Ge          0.14972      0.00170      0.62946  1.0000
  Si          0.02194      0.84411      0.46416  1.0000
  Ge          0.13047      0.14227      0.79750  1.0000
  Si          0.83183      0.95789      0.13139  1.0000
  Si          0.09258      0.92757      0.36457  1.0000
  Si          0.84351      0.88426      0.03211  1.0000
  Si          0.04005      0.12713      0.69631  1.0000
  Si          0.89317      0.03320      0.86385  1.0000
  Si          0.14540      0.08018      0.52800  1.0000
  Ge          0.94125      0.83132      0.19850  1.0000
  O3          0.92911      0.00854      0.00559  1.0000
  O2          0.97001      0.88650      0.33550  1.0000
  O3          0.07300      0.04172      0.66698  1.0000
  O2          0.07015      0.96009      0.49714  1.0000
  O3          0.01761      0.07420      0.83725  1.0000
  O3          0.90178      0.92093      0.16722  1.0000
  O1          0.31553      0.53704      0.33567  1.0000
  O1          0.43719      0.74585      0.66982  1.0000
  O1          0.23114      0.66353      0.00276  1.0000
  O1          0.67453      0.43080      0.83339  1.0000
  O1          0.54983      0.21216      0.16714  1.0000
  O1          0.76623      0.30080      0.49862  1.0000
  O1          0.56964      0.34042      0.00002  1.0000
  O1          0.77165      0.40311      0.66427  1.0000
  O1          0.64107      0.20315      0.33361  1.0000
  O1          0.42507      0.62978      0.50130  1.0000
  O1          0.21432      0.55131      0.16837  1.0000
  O1          0.34624      0.76648      0.83535  1.0000
  O1          0.12634      0.21362      0.97070  1.0000
  O3          0.76687      0.87733      0.30814  1.0000
  O1          0.09236      0.84666      0.63688  1.0000
  O3          0.87717      0.75207      0.47215  1.0000
  O1          0.22669      0.08409      0.80544  1.0000
  O3          0.88764      0.10389      0.13612  1.0000
  O3          0.18495      0.07250      0.35716  1.0000
  O3          0.89450      0.79086      0.02442  1.0000
  O3          0.89619      0.08085      0.68807  1.0000
  O3          0.79496      0.89153      0.85245  1.0000
  O3          0.09783      0.17580      0.51830  1.0000
  O1          0.09391      0.88214      0.18853  1.0000
  O3          0.91953      0.86007      0.25235  1.0000
  O3          0.11483      0.03171      0.57770  1.0000
  O3          0.92768      0.04260      0.91526  1.0000
  O3          0.05932      0.10448      0.74696  1.0000
  O2          0.85653      0.91985      0.08363  1.0000
  O2          0.04808      0.89945      0.41505  1.0000
  O1          0.89958      0.20456      0.97062  1.0000
  O3          0.78141      0.67644      0.30569  1.0000
  O1          0.30554      0.07758      0.63838  1.0000
  O3          0.09546      0.77114      0.47203  1.0000
  O1          0.21173      0.29910      0.80394  1.0000
  O3          0.68558      0.88483      0.14011  1.0000
  O3          0.16344      0.85449      0.35289  1.0000
  O3          0.70029      0.81821      0.01848  1.0000
  O3          0.12166      0.27144      0.68443  1.0000
  O3          0.83021      0.11549      0.85320  1.0000
  O3          0.29239      0.15030      0.52023  1.0000
  O1          0.86149      0.67608      0.18838  1.0000
  O1          0.31271      0.60235      0.24800  1.0000
  O1          0.37792      0.64782      0.58330  1.0000
  O1          0.29670      0.66626      0.91423  1.0000
  O1          0.67810      0.36322      0.74588  1.0000
  O1          0.61533      0.28635      0.07911  1.0000
  O1          0.68853      0.29686      0.41253  1.0000
  O1          0.37906      0.33471      0.95625  1.0000
  O1          0.64883      0.01433      0.29322  1.0000
  O1          0.99823      0.59405      0.64322  1.0000
  O1          0.61915      0.63342      0.46094  1.0000
  O1          0.34539      0.95083      0.79096  1.0000
  O1          0.02649      0.35980      0.12529  1.0000
  O1          0.32378      0.32842      0.35420  1.0000
  O1          0.01292      0.65515      0.02187  1.0000
  O1          0.64318      0.97039      0.68615  1.0000
  O1          0.66124      0.63749      0.85171  1.0000
  O1          0.96454      0.29413      0.53223  1.0000
  O1          0.34620      0.99386      0.18554  1.0000
  O1          0.76303      0.30896      0.99961  1.0000
  O1          0.67485      0.43086      0.33353  1.0000
  O1          0.54666      0.21086      0.66676  1.0000
  O1          0.24544      0.68702      0.50791  1.0000
  O1          0.31282      0.53906      0.83367  1.0000
  O1          0.44363      0.74702      0.16856  1.0000
  O1          0.25466      0.71556      0.31526  1.0000
  O1          0.46974      0.72526      0.98090  1.0000
  O1          0.23408      0.51562      0.65726  1.0000
  O1          0.73716      0.25213      0.81428  1.0000
  O1          0.52456      0.24411      0.48206  1.0000
  O1          0.72642      0.45182      0.14763  1.0000
  O1          0.75248      0.53626      0.02789  1.0000
  O1          0.44304      0.18921      0.35885  1.0000
  O1          0.78841      0.22865      0.69584  1.0000
  O1          0.22606      0.43449      0.51620  1.0000
  O1          0.54163      0.77809      0.85905  1.0000
  O1          0.20197      0.73482      0.19331  1.0000
  O1          0.50684      0.75978      0.30992  1.0000
  O1          0.26174      0.47249      0.97464  1.0000
  O1          0.24725      0.74563      0.62607  1.0000
  O1          0.48481      0.20844      0.80794  1.0000
  O1          0.73672      0.49392      0.47418  1.0000
  O1          0.77007      0.24389      0.13986  1.0000
  O1          0.21727      0.33945      0.89315  1.0000
  O1          0.64149      0.84786      0.22952  1.0000
  O1          0.07438      0.72336      0.56049  1.0000
  O1          0.77132      0.62839      0.39424  1.0000
  O1          0.34792      0.11583      0.72728  1.0000
  O1          0.86467      0.20791      0.05897  1.0000
  O1          0.30660      0.19773      0.43343  1.0000
  O1          0.90393      0.67324      0.10182  1.0000
  O1          0.77717      0.07476      0.76670  1.0000
  O1          0.68507      0.76932      0.93140  1.0000
  O1          0.14157      0.30987      0.59645  1.0000
  O1          0.21218      0.88758      0.26577  1.0000
  O1          0.55788      0.56450      0.99163  1.0000
  O1          0.41727      0.96421      0.32633  1.0000
  O1          0.97647      0.35924      0.64369  1.0000
  O1          0.43469      0.40335      0.49377  1.0000
  O1          0.57437      0.00405      0.82724  1.0000
  O1          0.97559      0.53753      0.16056  1.0000
  O1          0.54807      0.56432      0.34439  1.0000
  O1          0.02590      0.43317      0.01176  1.0000
  O1          0.40319      0.94796      0.68203  1.0000
  O1          0.44035      0.40193      0.84481  1.0000
  O1          0.99122      0.52212      0.49958  1.0000
  O1          0.58368      0.01083      0.18023  1.0000
  O1          0.52041      0.11830      0.25227  1.0000
  O1          0.85789      0.41779      0.57864  1.0000
  O1          0.61209      0.46354      0.91789  1.0000
  O1          0.47456      0.84509      0.75391  1.0000
  O1          0.13271      0.59509      0.08708  1.0000
  O1          0.38707      0.50920      0.41943  1.0000
  F           0.40267      0.83703      0.23893  1.0000
  F           0.14208      0.52921      0.57128  1.0000
  F           0.44292      0.57842      0.90454  1.0000
  F           0.58430      0.12729      0.73956  1.0000
  F           0.85130      0.43234      0.07185  1.0000
  F           0.54592      0.38903      0.40477  1.0000
