data_cif

_audit_creation_method             'generated by GULP'

_symmetry_space_group_name_H-M     'P 1'
_symmetry_Int_Tables_number        1
_symmetry_cell_setting             triclinic

_cell_length_a                       12.4988
_cell_length_b                       12.4903
_cell_length_c                       30.4460
_cell_angle_alpha                   89.8924
_cell_angle_beta                    90.0513
_cell_angle_gamma                  120.0350

loop_
_atom_site_label
_atom_site_fract_x
_atom_site_fract_y
_atom_site_fract_z
_atom_site_occupancy
  Ge          0.69960      0.37570      0.03389  1.0000
  Ge          0.60838      0.29886      0.36675  1.0000
  Ge          0.67902      0.27636      0.70083  1.0000
  Ge          0.29142      0.59167      0.53419  1.0000
  Ge          0.38315      0.66936      0.86808  1.0000
  Ge          0.30826      0.68467      0.20057  1.0000
  Ge          0.35021      0.65682      0.29931  1.0000
  Ge          0.31540      0.62799      0.96698  1.0000
  Ge          0.32003      0.66061      0.63289  1.0000
  Ge          0.64001      0.30683      0.79921  1.0000
  Ge          0.67698      0.33603      0.46580  1.0000
  Ge          0.66894      0.29927      0.13187  1.0000
  Ge          0.53530      0.42726      0.96848  1.0000
  Ge          0.55363      0.07963      0.30270  1.0000
  Ge          0.89601      0.43726      0.63452  1.0000
  Ge          0.45809      0.54061      0.47048  1.0000
  Ge          0.43887      0.88619      0.80366  1.0000
  Ge          0.08988      0.51706      0.13656  1.0000
  Ge          0.40354      0.49032      0.36502  1.0000
  Ge          0.09562      0.58137      0.03193  1.0000
  Ge          0.48931      0.88015      0.69917  1.0000
  Ge          0.59159      0.47989      0.86366  1.0000
  Ge          0.89835      0.38681      0.52914  1.0000
  Ge          0.49953      0.08131      0.19795  1.0000
  Ge          0.30243      0.39962      0.84575  1.0000
  Ge          0.58044      0.87435      0.17995  1.0000
  Ge          0.10077      0.67169      0.51167  1.0000
  Ge          0.69234      0.57260      0.34741  1.0000
  Ge          0.40748      0.08658      0.68020  1.0000
  Ge          0.88817      0.29440      0.01154  1.0000
  Ge          0.39244      0.25375      0.48029  1.0000
  Ge          0.86938      0.58168      0.14763  1.0000
  Ge          0.72336      0.10635      0.81370  1.0000
  Ge          0.60031      0.71253      0.97912  1.0000
  Ge          0.11754      0.37034      0.64398  1.0000
  Ge          0.26788      0.85728      0.31333  1.0000
  Ge          0.25002      0.34455      0.94890  1.0000
  Ge          0.63327      0.87433      0.28301  1.0000
  Ge          0.10163      0.72337      0.61609  1.0000
  Ge          0.74546      0.62184      0.45111  1.0000
  Ge          0.35694      0.08901      0.78279  1.0000
  Ge          0.88626      0.23330      0.11439  1.0000
  Ge          0.32653      0.20620      0.37631  1.0000
  Ge          0.88910      0.65800      0.04503  1.0000
  Ge          0.77317      0.08826      0.71041  1.0000
  Ge          0.66599      0.76306      0.87536  1.0000
  Ge          0.10686      0.30892      0.54129  1.0000
  Ge          0.21632      0.87459      0.20997  1.0000
  Ge          0.96986      0.11843      0.96478  1.0000
  Si          0.85517      0.82416      0.29938  1.0000
  Ge          0.15156      0.00300      0.63056  1.0000
  Si          0.01866      0.84365      0.46682  1.0000
  Ge          0.13073      0.14215      0.79802  1.0000
  Si          0.82988      0.95765      0.13093  1.0000
  Ge          0.09168      0.92950      0.36536  1.0000
  Si          0.84255      0.88348      0.03194  1.0000
  Si          0.04071      0.12775      0.69698  1.0000
  Si          0.89307      0.03191      0.86406  1.0000
  Si          0.14591      0.08109      0.52934  1.0000
  Ge          0.93970      0.83108      0.19801  1.0000
  O3          0.92770      0.00800      0.00556  1.0000
  O3          0.96066      0.89130      0.33575  1.0000
  O3          0.07675      0.04174      0.66944  1.0000
  O2          0.06717      0.95540      0.50180  1.0000
  O3          0.01828      0.07371      0.83791  1.0000
  O3          0.89716      0.91878      0.16710  1.0000
  O1          0.31824      0.53778      0.33478  1.0000
  O1          0.43692      0.74517      0.66955  1.0000
  O1          0.23076      0.66303      0.00246  1.0000
  O1          0.67387      0.42833      0.83376  1.0000
  O1          0.54918      0.21361      0.16713  1.0000
  O1          0.76551      0.30004      0.49904  1.0000
  O1          0.56949      0.34006      0.00041  1.0000
  O1          0.77191      0.40238      0.66484  1.0000
  O1          0.64329      0.20347      0.33323  1.0000
  O1          0.42404      0.62910      0.50160  1.0000
  O1          0.21305      0.55276      0.16775  1.0000
  O1          0.34772      0.76562      0.83545  1.0000
  O1          0.12560      0.21280      0.97078  1.0000
  O3          0.76171      0.87562      0.30596  1.0000
  O1          0.09177      0.84731      0.63649  1.0000
  O3          0.87413      0.74966      0.47468  1.0000
  O1          0.22600      0.08263      0.80513  1.0000
  O3          0.88727      0.10379      0.13568  1.0000
  O1          0.19371      0.08218      0.35556  1.0000
  O3          0.89391      0.79043      0.02411  1.0000
  O3          0.89726      0.08046      0.68806  1.0000
  O3          0.79600      0.89006      0.85291  1.0000
  O3          0.09919      0.17674      0.51832  1.0000
  O1          0.09290      0.88410      0.18885  1.0000
  O3          0.91869      0.85824      0.25206  1.0000
  O3          0.11918      0.04131      0.57996  1.0000
  O3          0.92691      0.04211      0.91547  1.0000
  O3          0.05776      0.10753      0.74803  1.0000
  O2          0.85547      0.91879      0.08346  1.0000
  O3          0.04382      0.90585      0.41940  1.0000
  O1          0.89983      0.20483      0.97059  1.0000
  O3          0.78323      0.67679      0.30644  1.0000
  O1          0.30705      0.07611      0.63886  1.0000
  O3          0.09199      0.76925      0.47233  1.0000
  O1          0.21331      0.29866      0.80463  1.0000
  O3          0.68361      0.88729      0.13886  1.0000
  O1          0.16469      0.84890      0.35332  1.0000
  O3          0.69967      0.81713      0.01852  1.0000
  O3          0.12169      0.27141      0.68433  1.0000
  O3          0.82946      0.11328      0.85305  1.0000
  O3          0.29153      0.14816      0.51957  1.0000
  O1          0.86135      0.67621      0.18779  1.0000
  O1          0.31249      0.60252      0.24661  1.0000
  O1          0.37651      0.64854      0.58317  1.0000
  O1          0.29836      0.66626      0.91433  1.0000
  O1          0.67783      0.36127      0.74623  1.0000
  O1          0.61575      0.28639      0.07915  1.0000
  O1          0.69028      0.29687      0.41299  1.0000
  O1          0.37845      0.33365      0.95707  1.0000
  O1          0.64617      0.01433      0.29154  1.0000
  O1          0.99640      0.59434      0.64310  1.0000
  O1          0.61787      0.63192      0.46128  1.0000
  O1          0.34579      0.94990      0.79126  1.0000
  O1          0.02568      0.35950      0.12519  1.0000
  O1          0.33189      0.33462      0.35373  1.0000
  O1          0.01244      0.65482      0.02138  1.0000
  O1          0.64414      0.96821      0.68636  1.0000
  O1          0.66210      0.63603      0.85214  1.0000
  O1          0.96423      0.29379      0.53235  1.0000
  O1          0.34422      0.99602      0.18629  1.0000
  O1          0.76318      0.30911      0.99958  1.0000
  O1          0.67960      0.43371      0.33459  1.0000
  O1          0.54767      0.21019      0.66707  1.0000
  O1          0.24384      0.68609      0.50761  1.0000
  O1          0.31457      0.53856      0.83404  1.0000
  O1          0.44072      0.74945      0.16719  1.0000
  O1          0.25443      0.71392      0.31413  1.0000
  O1          0.46949      0.72417      0.98117  1.0000
  O1          0.23381      0.51563      0.65721  1.0000
  O1          0.73615      0.24975      0.81438  1.0000
  O1          0.52420      0.24371      0.48227  1.0000
  O1          0.72627      0.45205      0.14736  1.0000
  O1          0.75250      0.53611      0.02776  1.0000
  O1          0.44884      0.19249      0.35868  1.0000
  O1          0.78797      0.22654      0.69579  1.0000
  O1          0.22509      0.43462      0.51625  1.0000
  O1          0.54294      0.77696      0.85920  1.0000
  O1          0.20037      0.73656      0.19350  1.0000
  O1          0.50513      0.75937      0.30857  1.0000
  O1          0.26167      0.47194      0.97483  1.0000
  O1          0.24558      0.74504      0.62674  1.0000
  O1          0.48423      0.20678      0.80812  1.0000
  O1          0.73570      0.49260      0.47504  1.0000
  O1          0.76980      0.24415      0.13981  1.0000
  O1          0.21848      0.33893      0.89360  1.0000
  O1          0.63772      0.84738      0.22777  1.0000
  O1          0.07437      0.72319      0.56063  1.0000
  O1          0.77471      0.63016      0.39558  1.0000
  O1          0.34891      0.11486      0.72751  1.0000
  O1          0.86477      0.20845      0.05888  1.0000
  O1          0.30916      0.19787      0.43271  1.0000
  O1          0.90368      0.67304      0.10135  1.0000
  O1          0.77667      0.07272      0.76664  1.0000
  O1          0.68482      0.76800      0.93165  1.0000
  O1          0.14102      0.31059      0.59645  1.0000
  O1          0.21087      0.88805      0.26638  1.0000
  O1          0.55726      0.56350      0.99187  1.0000
  O1          0.41690      0.96490      0.32597  1.0000
  O1          0.97705      0.36043      0.64424  1.0000
  O1          0.43211      0.40191      0.49343  1.0000
  O1          0.57433      0.00227      0.82717  1.0000
  O1          0.97474      0.53738      0.16011  1.0000
  O1          0.55352      0.57004      0.34602  1.0000
  O1          0.02546      0.43305      0.01136  1.0000
  O1          0.40515      0.94756      0.68208  1.0000
  O1          0.44116      0.40101      0.84518  1.0000
  O1          0.99013      0.52119      0.49991  1.0000
  O1          0.58068      0.01206      0.17959  1.0000
  O1          0.51891      0.12023      0.25229  1.0000
  O1          0.85729      0.41652      0.57903  1.0000
  O1          0.61099      0.46158      0.91822  1.0000
  O1          0.47462      0.84376      0.75386  1.0000
  O1          0.13137      0.59439      0.08653  1.0000
  O1          0.38760      0.51198      0.41942  1.0000
  F           0.40075      0.83737      0.23844  1.0000
  F           0.14151      0.52978      0.57137  1.0000
  F           0.44368      0.57756      0.90484  1.0000
  F           0.58445      0.12570      0.73966  1.0000
  F           0.85109      0.43229      0.07164  1.0000
  F           0.54899      0.39071      0.40543  1.0000
