data_cif

_audit_creation_method             'generated by GULP'

_symmetry_space_group_name_H-M     'P 1'
_symmetry_Int_Tables_number        1
_symmetry_cell_setting             triclinic

_cell_length_a                       12.4571
_cell_length_b                       12.4952
_cell_length_c                       30.4945
_cell_angle_alpha                   90.0795
_cell_angle_beta                    90.0948
_cell_angle_gamma                  119.8371

loop_
_atom_site_label
_atom_site_fract_x
_atom_site_fract_y
_atom_site_fract_z
_atom_site_occupancy
  Ge          0.69960      0.37570      0.03389  1.0000
  Ge          0.60784      0.29720      0.36694  1.0000
  Ge          0.68211      0.27973      0.70016  1.0000
  Ge          0.29878      0.59948      0.53405  1.0000
  Ge          0.38791      0.67378      0.86635  1.0000
  Ge          0.31401      0.68884      0.20043  1.0000
  Ge          0.35434      0.66034      0.29884  1.0000
  Ge          0.31789      0.63430      0.96488  1.0000
  Ge          0.32537      0.66666      0.63283  1.0000
  Ge          0.64632      0.31180      0.79873  1.0000
  Ge          0.68467      0.34385      0.46479  1.0000
  Ge          0.67346      0.30570      0.13211  1.0000
  Ge          0.54133      0.43245      0.96825  1.0000
  Ge          0.55522      0.08066      0.30203  1.0000
  Ge          0.90077      0.44872      0.63567  1.0000
  Ge          0.46376      0.54784      0.46885  1.0000
  Ge          0.44563      0.89064      0.80212  1.0000
  Ge          0.09734      0.52691      0.13401  1.0000
  Ge          0.40111      0.48793      0.36403  1.0000
  Ge          0.09646      0.58050      0.02912  1.0000
  Ge          0.49655      0.88717      0.69781  1.0000
  Ge          0.59641      0.48352      0.86338  1.0000
  Ge          0.90268      0.39766      0.53065  1.0000
  Ge          0.50353      0.08559      0.19776  1.0000
  Ge          0.30631      0.40297      0.84481  1.0000
  Ge          0.58502      0.87857      0.17962  1.0000
  Ge          0.10701      0.68072      0.51370  1.0000
  Ge          0.68912      0.56708      0.34467  1.0000
  Ge          0.40933      0.09079      0.67984  1.0000
  Ge          0.89089      0.29719      0.01069  1.0000
  Ge          0.40129      0.26312      0.48063  1.0000
  Ge          0.87536      0.59462      0.14391  1.0000
  Ge          0.73014      0.11137      0.81215  1.0000
  Ge          0.60358      0.71736      0.97870  1.0000
  Ge          0.12359      0.37930      0.64522  1.0000
  Ge          0.27143      0.86167      0.31235  1.0000
  Ge          0.25411      0.35121      0.94791  1.0000
  Ge          0.63711      0.87752      0.28204  1.0000
  Ge          0.10753      0.73438      0.61787  1.0000
  Ge          0.74950      0.62684      0.44759  1.0000
  Ge          0.36376      0.09397      0.78261  1.0000
  Ge          0.89167      0.24161      0.11441  1.0000
  Ge          0.32482      0.20463      0.37808  1.0000
  Ge          0.88641      0.65677      0.04154  1.0000
  Ge          0.78057      0.09450      0.70881  1.0000
  Ge          0.67117      0.76728      0.87505  1.0000
  Ge          0.11050      0.31900      0.54278  1.0000
  Ge          0.22020      0.87787      0.20932  1.0000
  Ge          0.97453      0.12314      0.96366  1.0000
  Ge          0.86381      0.82406      0.29781  1.0000
  Si          0.15684      0.00675      0.63174  1.0000
  Si          0.02515      0.84755      0.46423  1.0000
  Ge          0.13656      0.14561      0.79664  1.0000
  Ge          0.84069      0.96143      0.13002  1.0000
  Si          0.09938      0.93173      0.36496  1.0000
  Si          0.84866      0.88496      0.02898  1.0000
  Si          0.04932      0.13431      0.69559  1.0000
  Si          0.89903      0.03569      0.86273  1.0000
  Ge          0.15128      0.08526      0.53037  1.0000
  Si          0.95158      0.83712      0.19675  1.0000
  O3          0.93252      0.00913      0.00256  1.0000
  O3          0.97680      0.89442      0.33751  1.0000
  O2          0.09071      0.05465      0.66573  1.0000
  O3          0.06298      0.95849      0.49799  1.0000
  O3          0.02067      0.07367      0.83480  1.0000
  O3          0.91366      0.92316      0.17002  1.0000
  O1          0.31881      0.53953      0.33378  1.0000
  O1          0.44529      0.75268      0.66828  1.0000
  O1          0.22884      0.66768      0.99894  1.0000
  O1          0.67973      0.43280      0.83348  1.0000
  O1          0.55582      0.22022      0.16826  1.0000
  O1          0.77229      0.31030      0.49936  1.0000
  O1          0.56932      0.34113      0.00038  1.0000
  O1          0.77509      0.40892      0.66570  1.0000
  O1          0.64335      0.20212      0.33372  1.0000
  O1          0.42905      0.63585      0.50024  1.0000
  O1          0.22082      0.56183      0.16498  1.0000
  O1          0.35347      0.76961      0.83317  1.0000
  O1          0.12913      0.22203      0.97059  1.0000
  O1          0.76847      0.88424      0.30446  1.0000
  O3          0.10338      0.86203      0.63970  1.0000
  O3          0.87968      0.75515      0.46956  1.0000
  O1          0.23386      0.08885      0.80550  1.0000
  O1          0.90149      0.11741      0.13455  1.0000
  O3          0.19261      0.07622      0.35777  1.0000
  O3          0.89247      0.78679      0.01795  1.0000
  O3          0.90528      0.08542      0.68682  1.0000
  O3          0.80142      0.89330      0.85295  1.0000
  O1          0.09856      0.18574      0.52096  1.0000
  O3          0.09498      0.88452      0.18695  1.0000
  O3          0.93716      0.85699      0.24796  1.0000
  O3          0.12380      0.02993      0.58340  1.0000
  O3          0.93876      0.05106      0.91350  1.0000
  O3          0.06855      0.10902      0.74563  1.0000
  O3          0.87272      0.92020      0.08013  1.0000
  O2          0.05991      0.90593      0.41585  1.0000
  O1          0.89716      0.20277      0.97044  1.0000
  O1          0.77979      0.66785      0.30392  1.0000
  O3          0.30377      0.07765      0.63927  1.0000
  O3          0.10039      0.77679      0.47365  1.0000
  O1          0.21605      0.30177      0.80382  1.0000
  O1          0.68503      0.88941      0.13817  1.0000
  O3          0.16657      0.85547      0.35182  1.0000
  O3          0.70361      0.82315      0.01799  1.0000
  O3          0.12560      0.27919      0.68537  1.0000
  O3          0.83490      0.11671      0.85187  1.0000
  O1          0.30657      0.16109      0.52070  1.0000
  O3          0.87099      0.69369      0.18408  1.0000
  O1          0.31694      0.60549      0.24595  1.0000
  O1          0.38256      0.65546      0.58304  1.0000
  O1          0.30452      0.67473      0.91236  1.0000
  O1          0.68172      0.36483      0.74587  1.0000
  O1          0.61553      0.31920      0.08273  1.0000
  O1          0.69565      0.30109      0.41237  1.0000
  O1          0.38310      0.34215      0.95694  1.0000
  O1          0.64891      0.01724      0.29019  1.0000
  O1          0.99722      0.60706      0.64380  1.0000
  O1          0.62263      0.63886      0.45864  1.0000
  O1          0.35223      0.95461      0.79002  1.0000
  O1          0.99800      0.36967      0.14153  1.0000
  O1          0.32673      0.33085      0.35476  1.0000
  O1          0.03007      0.67310      0.03314  1.0000
  O1          0.65150      0.97426      0.68499  1.0000
  O1          0.66811      0.63963      0.85275  1.0000
  O1          0.96758      0.30427      0.53439  1.0000
  O1          0.34853      0.99715      0.18488  1.0000
  O1          0.74700      0.28180      0.00734  1.0000
  O1          0.67604      0.42776      0.33318  1.0000
  O1          0.54952      0.21401      0.66654  1.0000
  O1          0.25003      0.69419      0.50899  1.0000
  O1          0.31809      0.54167      0.83313  1.0000
  O1          0.44491      0.75489      0.16657  1.0000
  O1          0.25802      0.71825      0.31323  1.0000
  O1          0.47118      0.72697      0.98104  1.0000
  O1          0.24254      0.52344      0.65789  1.0000
  O1          0.74315      0.25462      0.81348  1.0000
  O1          0.53224      0.25149      0.48119  1.0000
  O1          0.75916      0.44941      0.15699  1.0000
  O1          0.76818      0.53219      0.01612  1.0000
  O1          0.44741      0.19099      0.36047  1.0000
  O1          0.79256      0.23103      0.69383  1.0000
  O1          0.22968      0.44253      0.51722  1.0000
  O1          0.54774      0.77977      0.85775  1.0000
  O1          0.20522      0.73925      0.19530  1.0000
  O1          0.51018      0.76097      0.30773  1.0000
  O1          0.26064      0.47791      0.97286  1.0000
  O1          0.24934      0.75040      0.62877  1.0000
  O1          0.49128      0.21033      0.80828  1.0000
  O1          0.74192      0.50030      0.47268  1.0000
  O1          0.74779      0.22100      0.12540  1.0000
  O1          0.22290      0.34252      0.89254  1.0000
  O1          0.64439      0.85083      0.22692  1.0000
  O1          0.08273      0.73575      0.56236  1.0000
  O1          0.77359      0.63117      0.39210  1.0000
  O1          0.35562      0.12179      0.72765  1.0000
  O1          0.91847      0.24246      0.05893  1.0000
  O1          0.31084      0.20428      0.43429  1.0000
  O1          0.85135      0.65435      0.09654  1.0000
  O1          0.78572      0.08053      0.76502  1.0000
  O1          0.68760      0.77417      0.93136  1.0000
  O1          0.14553      0.31870      0.59772  1.0000
  O1          0.21819      0.89582      0.26538  1.0000
  O1          0.56537      0.56989      0.99159  1.0000
  O1          0.42038      0.96589      0.32589  1.0000
  O1          0.98547      0.37566      0.64605  1.0000
  O1          0.44037      0.41164      0.49276  1.0000
  O1          0.58150      0.00640      0.82557  1.0000
  O1          0.01565      0.60314      0.14424  1.0000
  O1          0.54928      0.56374      0.34332  1.0000
  O1          0.00358      0.44725      0.99981  1.0000
  O1          0.41110      0.95403      0.68108  1.0000
  O1          0.44628      0.40597      0.84415  1.0000
  O1          0.99463      0.53172      0.50185  1.0000
  O1          0.58799      0.01789      0.18117  1.0000
  O1          0.51835      0.12238      0.25234  1.0000
  O1          0.86080      0.42739      0.58031  1.0000
  O1          0.61437      0.46285      0.91777  1.0000
  O1          0.48266      0.85013      0.75230  1.0000
  O1          0.13805      0.54996      0.07881  1.0000
  O1          0.39005      0.51545      0.41827  1.0000
  F           0.40971      0.84088      0.23890  1.0000
  F           0.14644      0.53831      0.57263  1.0000
  F           0.44727      0.58211      0.90427  1.0000
  F           0.59145      0.13076      0.73857  1.0000
  F           0.85136      0.43609      0.07138  1.0000
  F           0.55128      0.39293      0.40488  1.0000
