data_cif

_audit_creation_method             'generated by GULP'

_symmetry_space_group_name_H-M     'P 1'
_symmetry_Int_Tables_number        1
_symmetry_cell_setting             triclinic

_cell_length_a                       12.4998
_cell_length_b                       12.4898
_cell_length_c                       30.4502
_cell_angle_alpha                   90.0834
_cell_angle_beta                    90.0995
_cell_angle_gamma                  120.0376

loop_
_atom_site_label
_atom_site_fract_x
_atom_site_fract_y
_atom_site_fract_z
_atom_site_occupancy
  Ge          0.69960      0.37570      0.03389  1.0000
  Ge          0.60374      0.29692      0.36782  1.0000
  Ge          0.68080      0.27585      0.70123  1.0000
  Ge          0.29226      0.59314      0.53427  1.0000
  Ge          0.37728      0.66678      0.86708  1.0000
  Ge          0.30926      0.68370      0.20043  1.0000
  Ge          0.34555      0.65671      0.29995  1.0000
  Ge          0.31545      0.63224      0.96661  1.0000
  Ge          0.32156      0.66259      0.63306  1.0000
  Ge          0.63583      0.30683      0.79879  1.0000
  Ge          0.67787      0.34064      0.46622  1.0000
  Ge          0.67016      0.30042      0.13179  1.0000
  Ge          0.53677      0.43072      0.96918  1.0000
  Ge          0.54727      0.07914      0.30284  1.0000
  Ge          0.89757      0.43986      0.63489  1.0000
  Ge          0.46027      0.54487      0.47006  1.0000
  Ge          0.43229      0.88539      0.80359  1.0000
  Ge          0.09149      0.51882      0.13598  1.0000
  Ge          0.39797      0.48715      0.36459  1.0000
  Ge          0.09509      0.58267      0.03128  1.0000
  Ge          0.49139      0.88175      0.69932  1.0000
  Ge          0.58504      0.47586      0.86429  1.0000
  Ge          0.89914      0.38967      0.52967  1.0000
  Ge          0.50114      0.08242      0.19801  1.0000
  Ge          0.29544      0.39379      0.84788  1.0000
  Ge          0.58218      0.87427      0.18143  1.0000
  Ge          0.10160      0.67371      0.51278  1.0000
  Ge          0.68618      0.56773      0.34587  1.0000
  Ge          0.40956      0.08695      0.67905  1.0000
  Ge          0.88790      0.29465      0.01054  1.0000
  Ge          0.39333      0.25840      0.48145  1.0000
  Ge          0.87059      0.58354      0.14757  1.0000
  Ge          0.71666      0.10622      0.81551  1.0000
  Ge          0.60012      0.71637      0.97805  1.0000
  Ge          0.11862      0.37305      0.64394  1.0000
  Ge          0.26145      0.85738      0.31181  1.0000
  Ge          0.25072      0.34848      0.95121  1.0000
  Ge          0.62924      0.87490      0.28464  1.0000
  Ge          0.10294      0.72572      0.61712  1.0000
  Ge          0.74688      0.62653      0.44939  1.0000
  Ge          0.35307      0.08973      0.78142  1.0000
  Ge          0.88737      0.23479      0.11350  1.0000
  Ge          0.32133      0.20329      0.37804  1.0000
  Ge          0.88781      0.65857      0.04488  1.0000
  Ge          0.77509      0.08823      0.71336  1.0000
  Ge          0.65917      0.75903      0.87380  1.0000
  Ge          0.10674      0.31083      0.54148  1.0000
  Ge          0.21796      0.87403      0.20747  1.0000
  Ge          0.97455      0.12051      0.96615  1.0000
  Ge          0.85803      0.82706      0.30014  1.0000
  Ge          0.15305      0.00541      0.63046  1.0000
  Si          0.02379      0.84687      0.46537  1.0000
  Si          0.13372      0.14439      0.79734  1.0000
  Si          0.83038      0.95894      0.13093  1.0000
  Si          0.09374      0.93072      0.36581  1.0000
  Si          0.84216      0.88468      0.03183  1.0000
  Si          0.04632      0.13275      0.69805  1.0000
  Ge          0.89475      0.03200      0.86309  1.0000
  Si          0.14634      0.08308      0.52922  1.0000
  Ge          0.94477      0.83526      0.19675  1.0000
  O3          0.93098      0.01038      0.00695  1.0000
  O3          0.96905      0.89673      0.34062  1.0000
  O3          0.07843      0.04681      0.66859  1.0000
  O2          0.07045      0.96051      0.49950  1.0000
  O3          0.02270      0.07366      0.83119  1.0000
  O3          0.90043      0.92286      0.16676  1.0000
  O1          0.31305      0.53653      0.33499  1.0000
  O1          0.43981      0.74693      0.66940  1.0000
  O1          0.22950      0.66661      0.00175  1.0000
  O1          0.66840      0.42689      0.83384  1.0000
  O1          0.55157      0.21466      0.16735  1.0000
  O1          0.76560      0.30433      0.49963  1.0000
  O1          0.56904      0.34174      0.00078  1.0000
  O1          0.77352      0.40189      0.66550  1.0000
  O1          0.63728      0.20052      0.33442  1.0000
  O1          0.42411      0.63201      0.50119  1.0000
  O1          0.21445      0.55216      0.16712  1.0000
  O1          0.34090      0.76207      0.83415  1.0000
  O1          0.12875      0.21976      0.97501  1.0000
  O1          0.75827      0.88163      0.30828  1.0000
  O1          0.09395      0.85003      0.63772  1.0000
  O3          0.87805      0.75688      0.47111  1.0000
  O3          0.22377      0.08938      0.80360  1.0000
  O3          0.88792      0.10516      0.13472  1.0000
  O3          0.18978      0.07429      0.35747  1.0000
  O3          0.89102      0.78972      0.02362  1.0000
  O3          0.90079      0.08022      0.69288  1.0000
  O1          0.79078      0.88087      0.85162  1.0000
  O3          0.09749      0.17733      0.51897  1.0000
  O1          0.09590      0.88374      0.18516  1.0000
  O1          0.93027      0.86760      0.25058  1.0000
  O3          0.11765      0.03740      0.57919  1.0000
  O1          0.94529      0.04762      0.91656  1.0000
  O2          0.07712      0.11989      0.74849  1.0000
  O2          0.85187      0.91581      0.08363  1.0000
  O2          0.05922      0.90633      0.41720  1.0000
  O1          0.89987      0.20359      0.97004  1.0000
  O1          0.77692      0.66959      0.30525  1.0000
  O1          0.30894      0.07810      0.63785  1.0000
  O3          0.09391      0.77095      0.47339  1.0000
  O3          0.20474      0.29010      0.80683  1.0000
  O3          0.68485      0.88785      0.14023  1.0000
  O3          0.15503      0.85076      0.35062  1.0000
  O3          0.70078      0.82308      0.01686  1.0000
  O3          0.12254      0.27521      0.68441  1.0000
  O1          0.81999      0.11378      0.85545  1.0000
  O3          0.29284      0.15404      0.52090  1.0000
  O1          0.86366      0.67915      0.18771  1.0000
  O1          0.30960      0.60195      0.24709  1.0000
  O1          0.37720      0.64909      0.58335  1.0000
  O1          0.29537      0.66651      0.91375  1.0000
  O1          0.67627      0.36113      0.74606  1.0000
  O1          0.61585      0.28711      0.07919  1.0000
  O1          0.68786      0.29715      0.41370  1.0000
  O1          0.37960      0.33786      0.95774  1.0000
  O1          0.63955      0.01436      0.29128  1.0000
  O1          0.99772      0.59670      0.64410  1.0000
  O1          0.62000      0.63662      0.46143  1.0000
  O1          0.33951      0.95018      0.79156  1.0000
  O1          0.02643      0.36093      0.12452  1.0000
  O1          0.32300      0.32972      0.35511  1.0000
  O1          0.01153      0.65603      0.02142  1.0000
  O1          0.64725      0.96852      0.68818  1.0000
  O1          0.65161      0.62995      0.85101  1.0000
  O1          0.96392      0.29573      0.53272  1.0000
  O1          0.34681      0.99567      0.18478  1.0000
  O1          0.76175      0.30807      0.99920  1.0000
  O1          0.67478      0.42887      0.33451  1.0000
  O1          0.55067      0.20978      0.66667  1.0000
  O1          0.24469      0.68835      0.50864  1.0000
  O1          0.30782      0.53230      0.83466  1.0000
  O1          0.44327      0.74857      0.16807  1.0000
  O1          0.24951      0.71444      0.31413  1.0000
  O1          0.46970      0.72888      0.98045  1.0000
  O1          0.23445      0.51827      0.65750  1.0000
  O1          0.73108      0.24994      0.81492  1.0000
  O1          0.52544      0.24931      0.48323  1.0000
  O1          0.72782      0.45321      0.14758  1.0000
  O1          0.75168      0.53601      0.02751  1.0000
  O1          0.44373      0.19087      0.36007  1.0000
  O1          0.79048      0.22652      0.69837  1.0000
  O1          0.22469      0.43598      0.51627  1.0000
  O1          0.53649      0.77433      0.85779  1.0000
  O1          0.20229      0.73593      0.19125  1.0000
  O1          0.50037      0.75941      0.30973  1.0000
  O1          0.26437      0.47769      0.97635  1.0000
  O1          0.24696      0.74693      0.62720  1.0000
  O1          0.47995      0.20720      0.80698  1.0000
  O1          0.73893      0.49847      0.47365  1.0000
  O1          0.77057      0.24467      0.13908  1.0000
  O1          0.21297      0.33913      0.89610  1.0000
  O1          0.63717      0.84590      0.22954  1.0000
  O1          0.07437      0.72478      0.56170  1.0000
  O1          0.76918      0.63228      0.39370  1.0000
  O1          0.34808      0.11298      0.72603  1.0000
  O1          0.86610      0.20988      0.05798  1.0000
  O1          0.30759      0.20132      0.43429  1.0000
  O1          0.90261      0.67377      0.10121  1.0000
  O1          0.77298      0.06996      0.76951  1.0000
  O1          0.68200      0.77084      0.93015  1.0000
  O1          0.14226      0.31273      0.59651  1.0000
  O1          0.20684      0.88478      0.26382  1.0000
  O1          0.55977      0.56862      0.99169  1.0000
  O1          0.40949      0.96481      0.32539  1.0000
  O1          0.97736      0.36154      0.64372  1.0000
  O1          0.43446      0.40740      0.49384  1.0000
  O1          0.56671      0.00158      0.82788  1.0000
  O1          0.97643      0.53945      0.15953  1.0000
  O1          0.54583      0.56262      0.34369  1.0000
  O1          0.02405      0.43461      0.01005  1.0000
  O1          0.40837      0.94868      0.68047  1.0000
  O1          0.43283      0.39332      0.84765  1.0000
  O1          0.99103      0.52346      0.50047  1.0000
  O1          0.58331      0.01260      0.18146  1.0000
  O1          0.51449      0.12122      0.25240  1.0000
  O1          0.85840      0.42068      0.57943  1.0000
  O1          0.61081      0.46319      0.91869  1.0000
  O1          0.47033      0.84474      0.75386  1.0000
  O1          0.13203      0.59475      0.08580  1.0000
  O1          0.38930      0.51491      0.41901  1.0000
  F           0.39891      0.83631      0.23850  1.0000
  F           0.14169      0.53096      0.57182  1.0000
  F           0.44117      0.57823      0.90492  1.0000
  F           0.58353      0.12507      0.73984  1.0000
  F           0.85066      0.43262      0.07117  1.0000
  F           0.54738      0.39187      0.40558  1.0000
