data_cif

_audit_creation_method             'generated by GULP'

_symmetry_space_group_name_H-M     'P 1'
_symmetry_Int_Tables_number        1
_symmetry_cell_setting             triclinic

_cell_length_a                       12.4945
_cell_length_b                       12.5139
_cell_length_c                       30.3529
_cell_angle_alpha                   89.9844
_cell_angle_beta                    89.8746
_cell_angle_gamma                  120.0176

loop_
_atom_site_label
_atom_site_fract_x
_atom_site_fract_y
_atom_site_fract_z
_atom_site_occupancy
  Ge          0.69960      0.37570      0.03389  1.0000
  Ge          0.60584      0.29835      0.36605  1.0000
  Ge          0.67766      0.27644      0.70043  1.0000
  Ge          0.28794      0.59190      0.53266  1.0000
  Ge          0.38526      0.66575      0.86633  1.0000
  Ge          0.30839      0.68610      0.19937  1.0000
  Ge          0.34812      0.65544      0.29835  1.0000
  Ge          0.31613      0.62931      0.96569  1.0000
  Ge          0.31886      0.66273      0.63160  1.0000
  Ge          0.63821      0.30357      0.79992  1.0000
  Ge          0.67538      0.33812      0.46498  1.0000
  Ge          0.67011      0.30025      0.13216  1.0000
  Ge          0.53601      0.42913      0.96918  1.0000
  Ge          0.55071      0.07750      0.30317  1.0000
  Ge          0.89691      0.44269      0.63625  1.0000
  Ge          0.45405      0.53836      0.46867  1.0000
  Ge          0.43616      0.88480      0.80304  1.0000
  Ge          0.09035      0.51827      0.13526  1.0000
  Ge          0.39833      0.48603      0.36347  1.0000
  Ge          0.09467      0.58159      0.03022  1.0000
  Ge          0.48778      0.88099      0.69756  1.0000
  Ge          0.59223      0.47896      0.86401  1.0000
  Ge          0.89263      0.38593      0.53105  1.0000
  Ge          0.49951      0.08204      0.19813  1.0000
  Ge          0.30194      0.39442      0.84604  1.0000
  Ge          0.58080      0.87607      0.17941  1.0000
  Ge          0.09855      0.67393      0.51190  1.0000
  Ge          0.68727      0.56914      0.34477  1.0000
  Ge          0.40551      0.08732      0.68017  1.0000
  Ge          0.88759      0.29445      0.01042  1.0000
  Ge          0.39110      0.25326      0.47872  1.0000
  Ge          0.86997      0.58306      0.14716  1.0000
  Ge          0.72297      0.10387      0.81310  1.0000
  Ge          0.60083      0.71418      0.97841  1.0000
  Ge          0.11927      0.37917      0.64597  1.0000
  Ge          0.26529      0.85515      0.31298  1.0000
  Ge          0.25074      0.34612      0.94975  1.0000
  Ge          0.63125      0.87336      0.28273  1.0000
  Ge          0.10092      0.72761      0.61544  1.0000
  Ge          0.73957      0.62029      0.44835  1.0000
  Ge          0.35307      0.08801      0.78390  1.0000
  Ge          0.88747      0.23444      0.11372  1.0000
  Ge          0.32299      0.20348      0.37495  1.0000
  Ge          0.88812      0.65808      0.04413  1.0000
  Ge          0.77098      0.08785      0.70872  1.0000
  Ge          0.66864      0.76237      0.87422  1.0000
  Ge          0.09969      0.30977      0.54221  1.0000
  Ge          0.21640      0.87546      0.20931  1.0000
  Ge          0.97090      0.11930      0.96426  1.0000
  Si          0.85258      0.82245      0.29885  1.0000
  Si          0.15388      0.00097      0.63293  1.0000
  Si          0.01237      0.84088      0.46599  1.0000
  Si          0.13197      0.14035      0.80010  1.0000
  Si          0.83099      0.95931      0.13043  1.0000
  Ge          0.08911      0.92783      0.36492  1.0000
  Si          0.84260      0.88400      0.03125  1.0000
  Ge          0.04762      0.13103      0.69847  1.0000
  Si          0.89587      0.03133      0.86329  1.0000
  Ge          0.14274      0.07686      0.53165  1.0000
  Ge          0.94029      0.83251      0.19765  1.0000
  O3          0.92817      0.00804      0.00473  1.0000
  O3          0.95398      0.88340      0.33709  1.0000
  O3          0.09084      0.03820      0.67148  1.0000
  O3          0.05091      0.93987      0.50503  1.0000
  O2          0.02372      0.07882      0.83683  1.0000
  O3          0.89652      0.91975      0.16711  1.0000
  O1          0.31418      0.53494      0.33328  1.0000
  O1          0.43839      0.74860      0.66693  1.0000
  O1          0.22957      0.66426      0.00051  1.0000
  O1          0.67342      0.42493      0.83464  1.0000
  O1          0.55086      0.21541      0.16787  1.0000
  O1          0.75962      0.30328      0.50065  1.0000
  O1          0.56859      0.34089      0.00110  1.0000
  O1          0.77389      0.40842      0.66752  1.0000
  O1          0.64086      0.20089      0.33376  1.0000
  O1          0.41956      0.62712      0.49963  1.0000
  O1          0.21420      0.55494      0.16617  1.0000
  O1          0.34799      0.76121      0.83396  1.0000
  O1          0.12580      0.21523      0.97179  1.0000
  O3          0.76055      0.87561      0.30540  1.0000
  O3          0.09849      0.85506      0.63748  1.0000
  O3          0.86622      0.75055      0.47068  1.0000
  O3          0.22229      0.08502      0.80659  1.0000
  O3          0.88945      0.10542      0.13483  1.0000
  O1          0.19069      0.07949      0.35374  1.0000
  O3          0.89246      0.78993      0.02312  1.0000
  O1          0.89572      0.08041      0.68749  1.0000
  O3          0.80147      0.88906      0.85236  1.0000
  O1          0.09114      0.17738      0.52090  1.0000
  O1          0.09339      0.88561      0.18808  1.0000
  O3          0.92110      0.85996      0.25220  1.0000
  O3          0.12126      0.04025      0.58710  1.0000
  O3          0.93225      0.04398      0.91449  1.0000
  O3          0.06539      0.10783      0.75346  1.0000
  O2          0.85666      0.91923      0.08298  1.0000
  O3          0.05064      0.91391      0.42026  1.0000
  O1          0.89872      0.20377      0.96957  1.0000
  O3          0.77729      0.67461      0.30384  1.0000
  O3          0.30144      0.07206      0.63895  1.0000
  O3          0.08238      0.76311      0.47099  1.0000
  O3          0.21100      0.28745      0.80591  1.0000
  O3          0.68465      0.89034      0.13812  1.0000
  O1          0.16086      0.84604      0.35288  1.0000
  O3          0.69980      0.81911      0.01787  1.0000
  O1          0.12875      0.28428      0.68582  1.0000
  O3          0.82788      0.10832      0.85256  1.0000
  O1          0.29588      0.14883      0.51862  1.0000
  O1          0.86217      0.67791      0.18740  1.0000
  O1          0.31205      0.60310      0.24525  1.0000
  O1          0.37147      0.67902      0.57844  1.0000
  O1          0.29956      0.66414      0.91254  1.0000
  O1          0.67598      0.35807      0.74699  1.0000
  O1          0.61627      0.28655      0.07942  1.0000
  O1          0.69316      0.30289      0.41190  1.0000
  O1          0.37916      0.33529      0.95766  1.0000
  O1          0.64362      0.01266      0.29168  1.0000
  O1          0.96165      0.60032      0.62487  1.0000
  O1          0.61187      0.63178      0.45732  1.0000
  O1          0.34222      0.94938      0.79299  1.0000
  O1          0.02664      0.36086      0.12429  1.0000
  O1          0.32864      0.33105      0.35153  1.0000
  O1          0.01118      0.65473      0.02006  1.0000
  O1          0.64324      0.96562      0.68556  1.0000
  O1          0.66421      0.63447      0.85159  1.0000
  O1          0.97713      0.31519      0.51915  1.0000
  O1          0.34463      0.99704      0.18580  1.0000
  O1          0.76192      0.30840      0.99903  1.0000
  O1          0.67377      0.43015      0.33204  1.0000
  O1          0.54444      0.21336      0.66735  1.0000
  O1          0.22369      0.65974      0.49889  1.0000
  O1          0.31609      0.53334      0.83278  1.0000
  O1          0.44142      0.75193      0.16604  1.0000
  O1          0.25186      0.71212      0.31326  1.0000
  O1          0.47013      0.72616      0.97988  1.0000
  O1          0.26203      0.50963      0.64620  1.0000
  O1          0.73396      0.24602      0.81492  1.0000
  O1          0.52165      0.24121      0.47913  1.0000
  O1          0.72730      0.45306      0.14732  1.0000
  O1          0.75161      0.53581      0.02728  1.0000
  O1          0.44593      0.18925      0.35834  1.0000
  O1          0.78536      0.22468      0.69190  1.0000
  O1          0.23668      0.43217      0.52518  1.0000
  O1          0.54525      0.77432      0.85714  1.0000
  O1          0.20055      0.73796      0.19242  1.0000
  O1          0.50285      0.75776      0.30806  1.0000
  O1          0.26382      0.47443      0.97528  1.0000
  O1          0.21638      0.71521      0.64090  1.0000
  O1          0.48228      0.20314      0.80893  1.0000
  O1          0.72713      0.49281      0.47413  1.0000
  O1          0.77136      0.24545      0.13961  1.0000
  O1          0.21875      0.34050      0.89436  1.0000
  O1          0.63690      0.84754      0.22725  1.0000
  O1          0.12653      0.75781      0.55993  1.0000
  O1          0.77074      0.62528      0.39289  1.0000
  O1          0.34822      0.11340      0.72840  1.0000
  O1          0.86573      0.20967      0.05806  1.0000
  O1          0.30396      0.19760      0.43159  1.0000
  O1          0.90328      0.67347      0.10061  1.0000
  O1          0.77800      0.07572      0.76526  1.0000
  O1          0.68590      0.76908      0.93076  1.0000
  O1          0.08755      0.29173      0.59886  1.0000
  O1          0.20958      0.88737      0.26592  1.0000
  O1          0.55776      0.56586      0.99196  1.0000
  O1          0.41395      0.96207      0.32623  1.0000
  O1          0.01209      0.42086      0.65903  1.0000
  O1          0.43239      0.40180      0.49174  1.0000
  O1          0.57344      0.99871      0.82601  1.0000
  O1          0.97567      0.53901      0.15926  1.0000
  O1          0.54858      0.56712      0.34451  1.0000
  O1          0.02429      0.43346      0.00954  1.0000
  O1          0.40709      0.95068      0.67925  1.0000
  O1          0.44169      0.39818      0.84551  1.0000
  O1          0.96164      0.53567      0.51194  1.0000
  O1          0.58156      0.01380      0.17960  1.0000
  O1          0.51621      0.11875      0.25277  1.0000
  O1          0.85525      0.36762      0.58572  1.0000
  O1          0.61224      0.46339      0.91882  1.0000
  O1          0.46873      0.84368      0.75221  1.0000
  O1          0.13084      0.59439      0.08490  1.0000
  O1          0.37920      0.50422      0.41813  1.0000
  F           0.40007      0.83770      0.23784  1.0000
  F           0.13711      0.53194      0.57054  1.0000
  F           0.44625      0.57747      0.90385  1.0000
  F           0.58649      0.12440      0.73804  1.0000
  F           0.85111      0.43283      0.07087  1.0000
  F           0.54486      0.38845      0.40347  1.0000
