data_cif

_audit_creation_method             'generated by GULP'

_symmetry_space_group_name_H-M     'P 1'
_symmetry_Int_Tables_number        1
_symmetry_cell_setting             triclinic

_cell_length_a                       12.5053
_cell_length_b                       12.5378
_cell_length_c                       30.3947
_cell_angle_alpha                   90.0555
_cell_angle_beta                    90.0537
_cell_angle_gamma                  120.0229

loop_
_atom_site_label
_atom_site_fract_x
_atom_site_fract_y
_atom_site_fract_z
_atom_site_occupancy
  Ge          0.69960      0.37570      0.03389  1.0000
  Ge          0.60113      0.29705      0.36782  1.0000
  Ge          0.67813      0.27907      0.70081  1.0000
  Ge          0.28907      0.59222      0.53345  1.0000
  Ge          0.38797      0.66830      0.86537  1.0000
  Ge          0.31285      0.68933      0.19970  1.0000
  Ge          0.34660      0.65855      0.29939  1.0000
  Ge          0.31587      0.63103      0.96411  1.0000
  Ge          0.32000      0.66365      0.63234  1.0000
  Ge          0.63951      0.30612      0.80017  1.0000
  Ge          0.67679      0.34379      0.46603  1.0000
  Ge          0.67409      0.30524      0.13248  1.0000
  Ge          0.53881      0.43175      0.96882  1.0000
  Ge          0.54763      0.07928      0.30344  1.0000
  Ge          0.89808      0.44511      0.63759  1.0000
  Ge          0.45812      0.54450      0.46874  1.0000
  Ge          0.43807      0.88781      0.80263  1.0000
  Ge          0.09499      0.52394      0.13538  1.0000
  Ge          0.39355      0.48465      0.36369  1.0000
  Ge          0.09788      0.58129      0.03031  1.0000
  Ge          0.48920      0.88457      0.69719  1.0000
  Ge          0.59524      0.48239      0.86405  1.0000
  Ge          0.89311      0.38852      0.53258  1.0000
  Ge          0.50384      0.08669      0.19830  1.0000
  Ge          0.30551      0.39778      0.84463  1.0000
  Ge          0.58534      0.87975      0.18097  1.0000
  Ge          0.09952      0.67499      0.51398  1.0000
  Ge          0.68119      0.56470      0.34411  1.0000
  Ge          0.40611      0.09009      0.68020  1.0000
  Ge          0.88868      0.29525      0.01108  1.0000
  Ge          0.39321      0.26015      0.48064  1.0000
  Ge          0.87399      0.58856      0.14671  1.0000
  Ge          0.72439      0.10669      0.81285  1.0000
  Ge          0.59943      0.71548      0.97808  1.0000
  Ge          0.12028      0.38175      0.64722  1.0000
  Ge          0.26194      0.85838      0.31153  1.0000
  Ge          0.25491      0.35062      0.94799  1.0000
  Ge          0.63042      0.87654      0.28453  1.0000
  Ge          0.10262      0.72944      0.61718  1.0000
  Ge          0.74242      0.62590      0.44733  1.0000
  Ge          0.35450      0.09029      0.78396  1.0000
  Ge          0.89077      0.23939      0.11418  1.0000
  Ge          0.31816      0.20257      0.37775  1.0000
  Ge          0.89060      0.65655      0.04307  1.0000
  Ge          0.77210      0.09129      0.70861  1.0000
  Ge          0.67131      0.76548      0.87460  1.0000
  Ge          0.09922      0.31146      0.54367  1.0000
  Ge          0.22082      0.87837      0.20691  1.0000
  Ge          0.97526      0.12607      0.96322  1.0000
  Ge          0.85751      0.82550      0.30068  1.0000
  Si          0.15415      0.00195      0.63288  1.0000
  Si          0.01897      0.84353      0.46487  1.0000
  Si          0.13372      0.14230      0.79979  1.0000
  Si          0.83680      0.96591      0.13291  1.0000
  Si          0.09336      0.93051      0.36599  1.0000
  Ge          0.84580      0.88743      0.03196  1.0000
  Ge          0.04835      0.13326      0.69849  1.0000
  Si          0.89779      0.03409      0.86283  1.0000
  Ge          0.14419      0.07999      0.53165  1.0000
  Ge          0.94771      0.83890      0.19757  1.0000
  O1          0.93734      0.02096      0.00481  1.0000
  O3          0.96445      0.89057      0.34284  1.0000
  O3          0.08969      0.04150      0.66997  1.0000
  O3          0.05680      0.94788      0.50168  1.0000
  O2          0.02546      0.08212      0.83638  1.0000
  O3          0.89948      0.92930      0.17170  1.0000
  O1          0.31127      0.53685      0.33394  1.0000
  O1          0.44087      0.75187      0.66698  1.0000
  O1          0.22996      0.66451      0.99949  1.0000
  O1          0.67578      0.42758      0.83490  1.0000
  O1          0.55572      0.21993      0.16829  1.0000
  O1          0.76005      0.30833      0.50191  1.0000
  O1          0.56896      0.34194      0.00080  1.0000
  O1          0.77490      0.41133      0.66843  1.0000
  O1          0.63556      0.19970      0.33554  1.0000
  O1          0.42002      0.62982      0.49997  1.0000
  O1          0.21807      0.55791      0.16648  1.0000
  O1          0.35083      0.76373      0.83314  1.0000
  O1          0.13041      0.22072      0.96972  1.0000
  O1          0.76004      0.88308      0.30764  1.0000
  O3          0.10176      0.85722      0.63950  1.0000
  O3          0.87219      0.75750      0.46778  1.0000
  O3          0.22409      0.08735      0.80676  1.0000
  O3          0.89437      0.11215      0.13572  1.0000
  O3          0.18701      0.07375      0.35682  1.0000
  O1          0.89730      0.78682      0.02136  1.0000
  O1          0.89661      0.08374      0.68761  1.0000
  O3          0.80390      0.89145      0.85256  1.0000
  O1          0.08913      0.17825      0.52269  1.0000
  O1          0.09814      0.88745      0.18460  1.0000
  O1          0.93713      0.86546      0.25250  1.0000
  O3          0.11908      0.03276      0.58594  1.0000
  O3          0.93359      0.04731      0.91409  1.0000
  O3          0.06709      0.10756      0.75309  1.0000
  O3          0.86599      0.92166      0.08760  1.0000
  O2          0.06661      0.91162      0.41824  1.0000
  O1          0.90044      0.20777      0.96926  1.0000
  O1          0.77173      0.66822      0.30389  1.0000
  O3          0.30161      0.07592      0.63920  1.0000
  O3          0.08523      0.76423      0.47294  1.0000
  O3          0.21344      0.28945      0.80492  1.0000
  O3          0.68974      0.89709      0.13973  1.0000
  O3          0.15493      0.85155      0.35023  1.0000
  O1          0.69321      0.81845      0.01831  1.0000
  O1          0.12960      0.28675      0.68691  1.0000
  O3          0.82964      0.11064      0.85209  1.0000
  O1          0.29859      0.15795      0.52087  1.0000
  O1          0.86575      0.68448      0.18630  1.0000
  O1          0.31238      0.60638      0.24617  1.0000
  O1          0.37230      0.67860      0.57933  1.0000
  O1          0.29934      0.66461      0.91090  1.0000
  O1          0.67650      0.36042      0.74738  1.0000
  O1          0.61803      0.28955      0.07985  1.0000
  O1          0.69064      0.30387      0.41329  1.0000
  O1          0.38265      0.33893      0.95599  1.0000
  O1          0.64044      0.01520      0.29208  1.0000
  O1          0.96331      0.60267      0.62646  1.0000
  O1          0.61583      0.63829      0.45820  1.0000
  O1          0.34378      0.95200      0.79304  1.0000
  O1          0.02955      0.36640      0.12405  1.0000
  O1          0.31988      0.32794      0.35393  1.0000
  O1          0.01242      0.65127      0.01937  1.0000
  O1          0.64436      0.96956      0.68523  1.0000
  O1          0.66709      0.63768      0.85203  1.0000
  O1          0.97690      0.31736      0.52053  1.0000
  O1          0.34962      0.00097      0.18472  1.0000
  O1          0.76248      0.30837      0.99959  1.0000
  O1          0.66845      0.42583      0.33278  1.0000
  O1          0.54475      0.21632      0.66770  1.0000
  O1          0.22337      0.65949      0.50046  1.0000
  O1          0.32076      0.53683      0.83130  1.0000
  O1          0.44699      0.75447      0.16721  1.0000
  O1          0.25036      0.71610      0.31347  1.0000
  O1          0.46955      0.72843      0.97812  1.0000
  O1          0.26333      0.51153      0.64761  1.0000
  O1          0.73526      0.24846      0.81499  1.0000
  O1          0.52349      0.24820      0.48081  1.0000
  O1          0.73162      0.45768      0.14761  1.0000
  O1          0.75223      0.53494      0.02684  1.0000
  O1          0.44084      0.18925      0.36085  1.0000
  O1          0.78608      0.22785      0.69211  1.0000
  O1          0.23644      0.43285      0.52646  1.0000
  O1          0.54805      0.77739      0.85731  1.0000
  O1          0.20615      0.74164      0.19015  1.0000
  O1          0.50130      0.76071      0.30939  1.0000
  O1          0.26610      0.47734      0.97390  1.0000
  O1          0.21832      0.71655      0.64218  1.0000
  O1          0.48383      0.20542      0.80902  1.0000
  O1          0.73170      0.49958      0.47332  1.0000
  O1          0.77454      0.24979      0.13999  1.0000
  O1          0.22219      0.34506      0.89270  1.0000
  O1          0.63888      0.84986      0.22918  1.0000
  O1          0.12803      0.75958      0.56174  1.0000
  O1          0.76585      0.62798      0.39175  1.0000
  O1          0.34881      0.11501      0.72853  1.0000
  O1          0.86611      0.21040      0.05865  1.0000
  O1          0.30283      0.20305      0.43413  1.0000
  O1          0.90479      0.67521      0.09957  1.0000
  O1          0.77928      0.07888      0.76507  1.0000
  O1          0.68809      0.77171      0.93117  1.0000
  O1          0.08824      0.29375      0.60021  1.0000
  O1          0.20894      0.88719      0.26340  1.0000
  O1          0.55871      0.56776      0.99148  1.0000
  O1          0.40965      0.96475      0.32559  1.0000
  O1          0.01333      0.42333      0.66036  1.0000
  O1          0.43705      0.40954      0.49262  1.0000
  O1          0.57531      0.00142      0.82577  1.0000
  O1          0.98066      0.54578      0.15889  1.0000
  O1          0.54147      0.56088      0.34283  1.0000
  O1          0.02706      0.43217      0.01095  1.0000
  O1          0.40841      0.95408      0.67881  1.0000
  O1          0.44523      0.40172      0.84480  1.0000
  O1          0.96179      0.53820      0.51400  1.0000
  O1          0.58569      0.01724      0.18135  1.0000
  O1          0.51612      0.12272      0.25298  1.0000
  O1          0.85602      0.36969      0.58712  1.0000
  O1          0.61573      0.46675      0.91878  1.0000
  O1          0.47065      0.84781      0.75176  1.0000
  O1          0.13636      0.59841      0.08482  1.0000
  O1          0.38240      0.50959      0.41832  1.0000
  F           0.40127      0.83987      0.23795  1.0000
  F           0.13743      0.53277      0.57212  1.0000
  F           0.44836      0.58030      0.90316  1.0000
  F           0.58765      0.12732      0.73803  1.0000
  F           0.85282      0.43413      0.07113  1.0000
  F           0.54375      0.39112      0.40444  1.0000
