data_cif

_audit_creation_method             'generated by GULP'

_symmetry_space_group_name_H-M     'P 1'
_symmetry_Int_Tables_number        1
_symmetry_cell_setting             triclinic

_cell_length_a                       12.5214
_cell_length_b                       12.5142
_cell_length_c                       30.3687
_cell_angle_alpha                   89.9202
_cell_angle_beta                    89.9964
_cell_angle_gamma                  119.9456

loop_
_atom_site_label
_atom_site_fract_x
_atom_site_fract_y
_atom_site_fract_z
_atom_site_occupancy
  Ge          0.69960      0.37570      0.03389  1.0000
  Ge          0.60231      0.29773      0.36616  1.0000
  Ge          0.67653      0.27355      0.69918  1.0000
  Ge          0.28562      0.59092      0.53238  1.0000
  Ge          0.37983      0.66348      0.86616  1.0000
  Ge          0.30579      0.68622      0.19966  1.0000
  Ge          0.34636      0.65627      0.29867  1.0000
  Ge          0.31552      0.62914      0.96590  1.0000
  Ge          0.31662      0.66128      0.63132  1.0000
  Ge          0.63562      0.30319      0.79812  1.0000
  Ge          0.67258      0.33736      0.46503  1.0000
  Ge          0.66932      0.29948      0.13215  1.0000
  Ge          0.53563      0.42888      0.96902  1.0000
  Ge          0.54809      0.07732      0.30318  1.0000
  Ge          0.89592      0.44159      0.63556  1.0000
  Ge          0.45256      0.53811      0.46890  1.0000
  Ge          0.43426      0.88223      0.80230  1.0000
  Ge          0.08857      0.51686      0.13549  1.0000
  Ge          0.39623      0.48619      0.36368  1.0000
  Ge          0.09461      0.58192      0.03039  1.0000
  Ge          0.48727      0.87839      0.69715  1.0000
  Ge          0.58683      0.47355      0.86374  1.0000
  Ge          0.89102      0.38507      0.53037  1.0000
  Ge          0.49684      0.08222      0.19815  1.0000
  Ge          0.29781      0.39158      0.84671  1.0000
  Ge          0.57738      0.87567      0.17986  1.0000
  Ge          0.09647      0.67284      0.51160  1.0000
  Ge          0.68423      0.56875      0.34511  1.0000
  Ge          0.40576      0.08471      0.67821  1.0000
  Ge          0.88756      0.29510      0.01054  1.0000
  Ge          0.38909      0.25282      0.47897  1.0000
  Ge          0.86900      0.58228      0.14729  1.0000
  Ge          0.71964      0.10376      0.81243  1.0000
  Ge          0.60051      0.71452      0.97762  1.0000
  Ge          0.11741      0.37785      0.64532  1.0000
  Ge          0.26328      0.85582      0.31309  1.0000
  Ge          0.24981      0.34558      0.95045  1.0000
  Ge          0.62890      0.87322      0.28309  1.0000
  Ge          0.09912      0.72637      0.61514  1.0000
  Ge          0.73746      0.61994      0.44869  1.0000
  Ge          0.35360      0.08650      0.78160  1.0000
  Ge          0.88600      0.23322      0.11384  1.0000
  Ge          0.32035      0.20345      0.37520  1.0000
  Ge          0.88782      0.65782      0.04430  1.0000
  Ge          0.76993      0.08501      0.70861  1.0000
  Ge          0.66139      0.75643      0.87285  1.0000
  Ge          0.09771      0.30901      0.54160  1.0000
  Ge          0.21439      0.87614      0.20940  1.0000
  Ge          0.97205      0.11856      0.96685  1.0000
  Si          0.85010      0.82188      0.29916  1.0000
  Si          0.15292      0.99984      0.63249  1.0000
  Si          0.01023      0.84013      0.46596  1.0000
  Si          0.13340      0.13991      0.79919  1.0000
  Si          0.82687      0.95668      0.13113  1.0000
  Ge          0.08685      0.92798      0.36501  1.0000
  Si          0.84103      0.88290      0.03220  1.0000
  Ge          0.04624      0.12960      0.69800  1.0000
  Ge          0.89494      0.02911      0.86368  1.0000
  Ge          0.14097      0.07625      0.53153  1.0000
  Ge          0.93804      0.83137      0.19808  1.0000
  O3          0.93002      0.01154      0.00900  1.0000
  O3          0.95155      0.88315      0.33736  1.0000
  O3          0.09320      0.03882      0.67168  1.0000
  O3          0.04962      0.93907      0.50505  1.0000
  O3          0.03346      0.07713      0.83776  1.0000
  O3          0.89187      0.91811      0.16839  1.0000
  O1          0.31248      0.53570      0.33358  1.0000
  O1          0.43646      0.74572      0.66661  1.0000
  O1          0.22934      0.66420      0.00081  1.0000
  O1          0.66890      0.42264      0.83344  1.0000
  O1          0.54963      0.21535      0.16762  1.0000
  O1          0.75772      0.30254      0.50030  1.0000
  O1          0.56864      0.34130      0.00117  1.0000
  O1          0.77276      0.40591      0.66665  1.0000
  O1          0.63746      0.20065      0.33382  1.0000
  O1          0.41747      0.62644      0.49976  1.0000
  O1          0.21201      0.55458      0.16668  1.0000
  O1          0.34404      0.75964      0.83335  1.0000
  O1          0.12713      0.21572      0.97351  1.0000
  O3          0.75859      0.87569      0.30536  1.0000
  O3          0.09619      0.85375      0.63704  1.0000
  O3          0.86445      0.75004      0.47078  1.0000
  O3          0.22344      0.08397      0.80343  1.0000
  O3          0.88748      0.10323      0.13429  1.0000
  O1          0.18788      0.07975      0.35410  1.0000
  O3          0.89086      0.78920      0.02322  1.0000
  O1          0.89409      0.07694      0.68731  1.0000
  O1          0.79286      0.87909      0.85059  1.0000
  O1          0.08940      0.17662      0.52045  1.0000
  O1          0.09092      0.88576      0.18835  1.0000
  O3          0.91904      0.85793      0.25271  1.0000
  O3          0.11901      0.03993      0.58705  1.0000
  O1          0.93168      0.03889      0.91867  1.0000
  O3          0.06130      0.10862      0.75350  1.0000
  O2          0.84885      0.90990      0.08449  1.0000
  O3          0.04812      0.91328      0.42030  1.0000
  O1          0.90081      0.20477      0.97023  1.0000
  O3          0.77424      0.67424      0.30433  1.0000
  O3          0.30042      0.06837      0.63735  1.0000
  O3          0.07995      0.76212      0.47079  1.0000
  O3          0.21000      0.28704      0.80564  1.0000
  O3          0.68113      0.89044      0.13872  1.0000
  O1          0.15910      0.84687      0.35288  1.0000
  O3          0.70057      0.82126      0.01637  1.0000
  O1          0.12644      0.28249      0.68510  1.0000
  O1          0.82351      0.11201      0.85220  1.0000
  O1          0.29385      0.14834      0.51874  1.0000
  O1          0.86126      0.67700      0.18754  1.0000
  O1          0.30992      0.60377      0.24564  1.0000
  O1          0.36868      0.67797      0.57818  1.0000
  O1          0.29705      0.66355      0.91274  1.0000
  O1          0.67258      0.35630      0.74512  1.0000
  O1          0.61630      0.28647      0.07931  1.0000
  O1          0.68943      0.30174      0.41198  1.0000
  O1          0.37889      0.33591      0.95782  1.0000
  O1          0.64092      0.01243      0.29201  1.0000
  O1          0.96018      0.59926      0.62455  1.0000
  O1          0.61014      0.63147      0.45795  1.0000
  O1          0.34179      0.94758      0.79087  1.0000
  O1          0.02472      0.35930      0.12495  1.0000
  O1          0.32605      0.33119      0.35185  1.0000
  O1          0.01152      0.65571      0.02053  1.0000
  O1          0.64245      0.96251      0.68553  1.0000
  O1          0.65539      0.62780      0.85054  1.0000
  O1          0.97551      0.31453      0.51838  1.0000
  O1          0.34209      0.99798      0.18597  1.0000
  O1          0.76178      0.30849      0.99900  1.0000
  O1          0.67036      0.42970      0.33230  1.0000
  O1          0.54486      0.20961      0.66533  1.0000
  O1          0.22137      0.65877      0.49858  1.0000
  O1          0.31041      0.52996      0.83336  1.0000
  O1          0.43838      0.75176      0.16641  1.0000
  O1          0.25034      0.71299      0.31354  1.0000
  O1          0.46928      0.72549      0.97979  1.0000
  O1          0.25977      0.50796      0.64565  1.0000
  O1          0.73152      0.24623      0.81300  1.0000
  O1          0.51952      0.24092      0.47946  1.0000
  O1          0.72683      0.45230      0.14735  1.0000
  O1          0.75203      0.53577      0.02718  1.0000
  O1          0.44278      0.18911      0.35846  1.0000
  O1          0.78444      0.22184      0.69162  1.0000
  O1          0.23441      0.43129      0.52477  1.0000
  O1          0.53878      0.77061      0.85633  1.0000
  O1          0.19873      0.73875      0.19251  1.0000
  O1          0.50082      0.75808      0.30843  1.0000
  O1          0.26321      0.47445      0.97560  1.0000
  O1          0.21424      0.71365      0.64067  1.0000
  O1          0.48079      0.20174      0.80725  1.0000
  O1          0.72484      0.49208      0.47428  1.0000
  O1          0.76994      0.24405      0.13963  1.0000
  O1          0.21492      0.33778      0.89510  1.0000
  O1          0.63350      0.84701      0.22766  1.0000
  O1          0.12441      0.75644      0.55967  1.0000
  O1          0.76755      0.62474      0.39322  1.0000
  O1          0.34968      0.11274      0.72616  1.0000
  O1          0.86554      0.21016      0.05817  1.0000
  O1          0.30207      0.19731      0.43182  1.0000
  O1          0.90254      0.67270      0.10076  1.0000
  O1          0.77584      0.07297      0.76522  1.0000
  O1          0.68200      0.76778      0.92942  1.0000
  O1          0.08537      0.29059      0.59821  1.0000
  O1          0.20766      0.88795      0.26598  1.0000
  O1          0.55934      0.56675      0.99135  1.0000
  O1          0.41164      0.96252      0.32625  1.0000
  O1          0.01065      0.41965      0.65850  1.0000
  O1          0.43056      0.40138      0.49196  1.0000
  O1          0.57079      0.99709      0.82522  1.0000
  O1          0.97444      0.53806      0.15935  1.0000
  O1          0.54594      0.56693      0.34469  1.0000
  O1          0.02354      0.43428      0.00947  1.0000
  O1          0.40721      0.94801      0.67807  1.0000
  O1          0.43565      0.39221      0.84665  1.0000
  O1          0.95989      0.53483      0.51141  1.0000
  O1          0.57819      0.01338      0.17981  1.0000
  O1          0.51395      0.11897      0.25276  1.0000
  O1          0.85460      0.36679      0.58505  1.0000
  O1          0.61019      0.46019      0.91843  1.0000
  O1          0.46781      0.84078      0.75176  1.0000
  O1          0.12986      0.59275      0.08511  1.0000
  O1          0.37804      0.50457      0.41834  1.0000
  F           0.39760      0.83815      0.23805  1.0000
  F           0.13499      0.53080      0.57010  1.0000
  F           0.44234      0.57541      0.90390  1.0000
  F           0.58544      0.12257      0.73696  1.0000
  F           0.85054      0.43225      0.07092  1.0000
  F           0.54203      0.38804      0.40369  1.0000
