data_cif

_audit_creation_method             'generated by GULP'

_symmetry_space_group_name_H-M     'P 1'
_symmetry_Int_Tables_number        1
_symmetry_cell_setting             triclinic

_cell_length_a                       12.4726
_cell_length_b                       12.5326
_cell_length_c                       30.4427
_cell_angle_alpha                   89.8131
_cell_angle_beta                    90.0860
_cell_angle_gamma                  119.8835

loop_
_atom_site_label
_atom_site_fract_x
_atom_site_fract_y
_atom_site_fract_z
_atom_site_occupancy
  Ge          0.69960      0.37570      0.03389  1.0000
  Ge          0.59900      0.29637      0.36488  1.0000
  Ge          0.67326      0.27140      0.69942  1.0000
  Ge          0.29219      0.59281      0.53444  1.0000
  Ge          0.37619      0.66348      0.86731  1.0000
  Ge          0.30407      0.68216      0.20129  1.0000
  Ge          0.34533      0.65850      0.30070  1.0000
  Ge          0.31426      0.62708      0.96692  1.0000
  Ge          0.31574      0.66244      0.63288  1.0000
  Ge          0.63474      0.30490      0.79773  1.0000
  Ge          0.67415      0.33244      0.46319  1.0000
  Ge          0.66658      0.29768      0.13178  1.0000
  Ge          0.53702      0.42919      0.96790  1.0000
  Ge          0.54778      0.07686      0.30234  1.0000
  Ge          0.89101      0.43984      0.63330  1.0000
  Ge          0.44853      0.53299      0.46935  1.0000
  Ge          0.43206      0.88347      0.80467  1.0000
  Ge          0.08690      0.51316      0.13710  1.0000
  Ge          0.39202      0.48362      0.36457  1.0000
  Ge          0.09487      0.57980      0.03227  1.0000
  Ge          0.48309      0.87723      0.70025  1.0000
  Ge          0.58664      0.47584      0.86284  1.0000
  Ge          0.89366      0.38753      0.52835  1.0000
  Ge          0.49570      0.07870      0.19732  1.0000
  Ge          0.29560      0.39324      0.84685  1.0000
  Ge          0.57659      0.87163      0.18135  1.0000
  Ge          0.10054      0.66976      0.51017  1.0000
  Ge          0.68218      0.56785      0.34499  1.0000
  Ge          0.40010      0.08094      0.68055  1.0000
  Ge          0.88821      0.29403      0.01154  1.0000
  Ge          0.39011      0.24956      0.47867  1.0000
  Ge          0.86642      0.57917      0.14815  1.0000
  Ge          0.71668      0.10498      0.81404  1.0000
  Ge          0.60090      0.71389      0.97728  1.0000
  Ge          0.11476      0.37436      0.64456  1.0000
  Ge          0.26192      0.85876      0.31334  1.0000
  Ge          0.24965      0.34497      0.95031  1.0000
  Ge          0.63022      0.87307      0.28452  1.0000
  Ge          0.09727      0.72553      0.61405  1.0000
  Ge          0.73419      0.61303      0.44828  1.0000
  Ge          0.35250      0.08813      0.78305  1.0000
  Ge          0.88398      0.23055      0.11460  1.0000
  Ge          0.31558      0.19987      0.37530  1.0000
  Ge          0.88783      0.65683      0.04547  1.0000
  Ge          0.76658      0.08348      0.71107  1.0000
  Ge          0.65952      0.75767      0.87273  1.0000
  Ge          0.10367      0.31275      0.54201  1.0000
  Ge          0.21316      0.87256      0.20934  1.0000
  Ge          0.97224      0.11751      0.96732  1.0000
  Si          0.85222      0.82246      0.29946  1.0000
  Si          0.14855      0.99842      0.63252  1.0000
  Ge          0.01335      0.83985      0.46367  1.0000
  Si          0.13234      0.14172      0.80004  1.0000
  Si          0.82500      0.95394      0.13139  1.0000
  Si          0.08820      0.93143      0.36310  1.0000
  Si          0.84134      0.88205      0.03242  1.0000
  Ge          0.04292      0.12697      0.69880  1.0000
  Ge          0.89275      0.03055      0.86445  1.0000
  Ge          0.14361      0.07995      0.53183  1.0000
  Ge          0.93564      0.82797      0.19811  1.0000
  O3          0.93141      0.01011      0.00916  1.0000
  O2          0.96335      0.88488      0.33486  1.0000
  O3          0.08498      0.03356      0.67141  1.0000
  O1          0.05212      0.94762      0.50402  1.0000
  O3          0.03110      0.07955      0.83815  1.0000
  O3          0.89353      0.91644      0.16756  1.0000
  O1          0.31005      0.53717      0.33542  1.0000
  O1          0.43183      0.74450      0.66987  1.0000
  O1          0.22997      0.66193      0.00279  1.0000
  O1          0.66899      0.42647      0.83192  1.0000
  O1          0.54578      0.21064      0.16655  1.0000
  O1          0.76378      0.29926      0.49706  1.0000
  O1          0.57051      0.34183      0.99999  1.0000
  O1          0.76540      0.39857      0.66374  1.0000
  O1          0.63587      0.20158      0.33224  1.0000
  O1          0.42290      0.62533      0.50166  1.0000
  O1          0.20992      0.55001      0.16872  1.0000
  O1          0.34021      0.76134      0.83562  1.0000
  O1          0.12800      0.21443      0.97342  1.0000
  O3          0.76074      0.87602      0.30752  1.0000
  O3          0.08939      0.85170      0.63404  1.0000
  O1          0.85916      0.74081      0.47089  1.0000
  O3          0.22316      0.08689      0.80555  1.0000
  O3          0.88335      0.09983      0.13512  1.0000
  O3          0.18203      0.07458      0.35372  1.0000
  O3          0.89219      0.78871      0.02447  1.0000
  O1          0.88894      0.07212      0.68968  1.0000
  O1          0.79047      0.88142      0.85071  1.0000
  O1          0.09510      0.18243      0.51965  1.0000
  O1          0.08854      0.88052      0.18828  1.0000
  O3          0.91361      0.85651      0.25195  1.0000
  O3          0.11952      0.04324      0.58713  1.0000
  O1          0.93018      0.03836      0.91922  1.0000
  O3          0.06234      0.10839      0.75390  1.0000
  O2          0.84654      0.90984      0.08436  1.0000
  O3          0.04776      0.91493      0.41376  1.0000
  O1          0.90141      0.20415      0.97127  1.0000
  O3          0.77453      0.67553      0.30525  1.0000
  O3          0.29559      0.06484      0.63923  1.0000
  O1          0.09326      0.76242      0.46943  1.0000
  O3          0.20714      0.28880      0.80595  1.0000
  O3          0.67917      0.88441      0.14006  1.0000
  O3          0.15812      0.85613      0.35284  1.0000
  O3          0.70107      0.82021      0.01597  1.0000
  O1          0.12183      0.27869      0.68483  1.0000
  O1          0.82131      0.11413      0.85380  1.0000
  O1          0.29679      0.14640      0.51889  1.0000
  O1          0.85793      0.67351      0.18818  1.0000
  O1          0.30692      0.60283      0.24818  1.0000
  O1          0.37490      0.65057      0.58350  1.0000
  O1          0.29339      0.66155      0.91415  1.0000
  O1          0.67066      0.35650      0.74443  1.0000
  O1          0.61431      0.28669      0.07899  1.0000
  O1          0.68706      0.29694      0.41009  1.0000
  O1          0.37993      0.33605      0.95677  1.0000
  O1          0.64179      0.01205      0.29278  1.0000
  O1          0.98762      0.59793      0.64048  1.0000
  O1          0.60586      0.62308      0.45688  1.0000
  O1          0.33966      0.94913      0.79259  1.0000
  O1          0.02276      0.35596      0.12648  1.0000
  O1          0.31932      0.32807      0.35331  1.0000
  O1          0.01241      0.65445      0.02235  1.0000
  O1          0.63741      0.96414      0.68715  1.0000
  O1          0.65445      0.63012      0.85016  1.0000
  O1          0.96013      0.29607      0.53326  1.0000
  O1          0.34042      0.99324      0.18535  1.0000
  O1          0.76269      0.30833      0.99965  1.0000
  O1          0.66669      0.42877      0.33152  1.0000
  O1          0.54041      0.20254      0.66615  1.0000
  O1          0.24452      0.68546      0.50722  1.0000
  O1          0.30643      0.53111      0.83419  1.0000
  O1          0.43771      0.74629      0.16858  1.0000
  O1          0.24998      0.71651      0.31578  1.0000
  O1          0.46888      0.72401      0.98007  1.0000
  O1          0.23010      0.51932      0.65753  1.0000
  O1          0.73075      0.24826      0.81328  1.0000
  O1          0.52124      0.23819      0.47886  1.0000
  O1          0.72376      0.44932      0.14783  1.0000
  O1          0.75231      0.53550      0.02769  1.0000
  O1          0.43876      0.18856      0.35715  1.0000
  O1          0.78204      0.22132      0.69540  1.0000
  O1          0.22382      0.43654      0.51695  1.0000
  O1          0.53553      0.77120      0.85692  1.0000
  O1          0.19729      0.73482      0.19326  1.0000
  O1          0.50108      0.75871      0.30981  1.0000
  O1          0.26308      0.47268      0.97609  1.0000
  O1          0.23994      0.74535      0.62610  1.0000
  O1          0.47997      0.20497      0.80804  1.0000
  O1          0.72766      0.48678      0.47330  1.0000
  O1          0.76669      0.24134      0.13958  1.0000
  O1          0.21336      0.33834      0.89526  1.0000
  O1          0.63481      0.84610      0.22932  1.0000
  O1          0.07325      0.72535      0.55833  1.0000
  O1          0.76583      0.62080      0.39292  1.0000
  O1          0.34561      0.11399      0.72773  1.0000
  O1          0.86549      0.20868      0.05898  1.0000
  O1          0.30124      0.19245      0.43185  1.0000
  O1          0.90051      0.67020      0.10186  1.0000
  O1          0.77122      0.06963      0.76745  1.0000
  O1          0.68165      0.76801      0.92912  1.0000
  O1          0.13701      0.31307      0.59729  1.0000
  O1          0.20630      0.88638      0.26562  1.0000
  O1          0.56095      0.56640      0.99052  1.0000
  O1          0.41127      0.96390      0.32603  1.0000
  O1          0.97433      0.36614      0.64450  1.0000
  O1          0.42675      0.39614      0.49214  1.0000
  O1          0.56780      0.99968      0.82772  1.0000
  O1          0.97193      0.53461      0.16038  1.0000
  O1          0.54180      0.56324      0.34502  1.0000
  O1          0.02448      0.43293      0.01104  1.0000
  O1          0.39688      0.94249      0.68324  1.0000
  O1          0.43462      0.39530      0.84613  1.0000
  O1          0.98747      0.52052      0.49923  1.0000
  O1          0.57721      0.00902      0.17996  1.0000
  O1          0.51356      0.11655      0.25169  1.0000
  O1          0.85103      0.41751      0.57789  1.0000
  O1          0.61107      0.46111      0.91728  1.0000
  O1          0.46774      0.84094      0.75486  1.0000
  O1          0.12966      0.58937      0.08691  1.0000
  O1          0.37333      0.50155      0.41915  1.0000
  F           0.39704      0.83641      0.23897  1.0000
  F           0.13919      0.53179      0.57145  1.0000
  F           0.44093      0.57605      0.90405  1.0000
  F           0.57898      0.12152      0.73947  1.0000
  F           0.84967      0.43072      0.07174  1.0000
  F           0.54027      0.38478      0.40371  1.0000
