data_cif

_audit_creation_method             'generated by GULP'

_symmetry_space_group_name_H-M     'P 1'
_symmetry_Int_Tables_number        1
_symmetry_cell_setting             triclinic

_cell_length_a                       12.5076
_cell_length_b                       12.5220
_cell_length_c                       30.3932
_cell_angle_alpha                   90.0000
_cell_angle_beta                    90.0000
_cell_angle_gamma                  119.8899

loop_
_atom_site_label
_atom_site_fract_x
_atom_site_fract_y
_atom_site_fract_z
_atom_site_occupancy
  Ge          0.69960      0.37570      0.03389  1.0000
  Ge          0.66998      0.34326      0.36648  1.0000
  Ge          0.70462      0.34444      0.70055  1.0000
  Ge          0.34555      0.66612      0.53389  1.0000
  Ge          0.37516      0.69856      0.86648  1.0000
  Ge          0.34053      0.69738      0.20055  1.0000
  Ge          0.41633      0.72775      0.29876  1.0000
  Ge          0.34111      0.63467      0.96608  1.0000
  Ge          0.31686      0.70770      0.63285  1.0000
  Ge          0.62882      0.31407      0.79876  1.0000
  Ge          0.70403      0.40715      0.46608  1.0000
  Ge          0.72829      0.33412      0.13285  1.0000
  Ge          0.53039      0.42739      0.96882  1.0000
  Ge          0.62243      0.12234      0.30213  1.0000
  Ge          0.92062      0.51640      0.63421  1.0000
  Ge          0.51476      0.61443      0.46882  1.0000
  Ge          0.42272      0.91948      0.80213  1.0000
  Ge          0.12453      0.52542      0.13421  1.0000
  Ge          0.46984      0.56388      0.36355  1.0000
  Ge          0.12128      0.57804      0.02928  1.0000
  Ge          0.48713      0.92483      0.69707  1.0000
  Ge          0.57531      0.47794      0.86355  1.0000
  Ge          0.92386      0.46378      0.52928  1.0000
  Ge          0.55801      0.11699      0.19707  1.0000
  Ge          0.28964      0.41358      0.85490  1.0000
  Ge          0.62327      0.89724      0.18548  1.0000
  Ge          0.14560      0.74872      0.51921  1.0000
  Ge          0.75550      0.62824      0.35490  1.0000
  Ge          0.42188      0.14458      0.68548  1.0000
  Ge          0.89955      0.29310      0.01921  1.0000
  Ge          0.43205      0.32514      0.48579  1.0000
  Ge          0.91753      0.60564      0.15278  1.0000
  Ge          0.70958      0.12608      0.82210  1.0000
  Ge          0.61310      0.71668      0.98579  1.0000
  Ge          0.12762      0.43618      0.65278  1.0000
  Ge          0.33557      0.91574      0.32210  1.0000
  Ge          0.24744      0.35300      0.95957  1.0000
  Ge          0.69849      0.91561      0.28835  1.0000
  Ge          0.12662      0.79884      0.62285  1.0000
  Ge          0.79771      0.68882      0.45957  1.0000
  Ge          0.34666      0.12621      0.78835  1.0000
  Ge          0.91852      0.24298      0.12285  1.0000
  Ge          0.38638      0.27809      0.38201  1.0000
  Ge          0.91610      0.65778      0.04971  1.0000
  Ge          0.77062      0.12741      0.71881  1.0000
  Ge          0.65876      0.76373      0.88201  1.0000
  Ge          0.12905      0.38404      0.54971  1.0000
  Ge          0.27453      0.91441      0.21881  1.0000
  Ge          0.97529      0.11820      0.96885  1.0000
  Si          0.92379      0.86888      0.30050  1.0000
  Ge          0.17250      0.07562      0.63478  1.0000
  Ge          0.06986      0.92362      0.46885  1.0000
  Si          0.12136      0.17294      0.80050  1.0000
  Ge          0.87264      0.96620      0.13478  1.0000
  Ge          0.15938      0.00094      0.36577  1.0000
  Si          0.86481      0.87910      0.03352  1.0000
  Si          0.04725      0.18705      0.70161  1.0000
  Ge          0.88576      0.04088      0.86577  1.0000
  Si          0.18033      0.16272      0.53352  1.0000
  Si          0.99790      0.85477      0.20161  1.0000
  O3          0.92970      0.98252      0.99632  1.0000
  O3          0.05188      0.95814      0.32387  1.0000
  O3          0.08598      0.12161      0.66465  1.0000
  O3          0.11545      0.05930      0.49632  1.0000
  O3          0.99326      0.08368      0.82387  1.0000
  O3          0.95917      0.92021      0.16465  1.0000
  O1          0.38214      0.59702      0.33157  1.0000
  O1          0.44871      0.80136      0.66585  1.0000
  O1          0.24408      0.66970      0.99867  1.0000
  O1          0.66301      0.44480      0.83157  1.0000
  O1          0.59643      0.24046      0.16585  1.0000
  O1          0.80107      0.37212      0.49867  1.0000
  O1          0.57970      0.34364      0.99892  1.0000
  O1          0.78806      0.46381      0.66502  1.0000
  O1          0.70494      0.25712      0.33154  1.0000
  O1          0.46545      0.69818      0.49892  1.0000
  O1          0.25709      0.57801      0.16502  1.0000
  O1          0.34021      0.78470      0.83154  1.0000
  O1          0.12512      0.22159      0.98172  1.0000
  O3          0.82971      0.91840      0.30940  1.0000
  O1          0.11742      0.92248      0.64398  1.0000
  O1          0.92003      0.82023      0.48172  1.0000
  O3          0.21544      0.12342      0.80940  1.0000
  O1          0.92773      0.11934      0.14398  1.0000
  O1          0.25699      0.15570      0.35875  1.0000
  O3          0.91767      0.78684      0.02731  1.0000
  O3          0.90070      0.12632      0.69829  1.0000
  O1          0.78815      0.88612      0.85875  1.0000
  O3          0.12748      0.25498      0.52731  1.0000
  O3          0.14445      0.91550      0.19829  1.0000
  O2          0.95140      0.87669      0.24831  1.0000
  O3          0.14675      0.09651      0.58037  1.0000
  O1          0.96445      0.07837      0.91421  1.0000
  O2          0.09375      0.16513      0.74831  1.0000
  O3          0.89840      0.94531      0.08037  1.0000
  O1          0.08070      0.96345      0.41421  1.0000
  O1          0.89163      0.18931      0.97951  1.0000
  O3          0.86246      0.72846      0.31624  1.0000
  O1          0.32687      0.15205      0.64528  1.0000
  O1          0.15352      0.85251      0.47951  1.0000
  O3          0.18269      0.31336      0.81624  1.0000
  O1          0.71827      0.88977      0.14528  1.0000
  O1          0.24489      0.92888      0.36239  1.0000
  O3          0.71770      0.80588      0.02672  1.0000
  O3          0.11325      0.33267      0.69393  1.0000
  O1          0.80026      0.11294      0.86239  1.0000
  O3          0.32745      0.23594      0.52672  1.0000
  O3          0.93190      0.70915      0.19393  1.0000
  O1          0.32731      0.64448      0.25339  1.0000
  O1          0.39898      0.70385      0.58678  1.0000
  O1          0.34096      0.71743      0.91955  1.0000
  O1          0.71784      0.39734      0.75339  1.0000
  O1          0.64616      0.33797      0.08678  1.0000
  O1          0.70418      0.32439      0.41955  1.0000
  O1          0.37623      0.35937      0.98194  1.0000
  O1          0.69618      0.03923      0.31206  1.0000
  O1          0.00457      0.67126      0.64610  1.0000
  O1          0.66892      0.68245      0.48194  1.0000
  O1          0.34897      0.00259      0.81206  1.0000
  O1          0.04058      0.37056      0.14610  1.0000
  O1          0.37678      0.40716      0.37467  1.0000
  O1          0.05530      0.66998      0.04084  1.0000
  O1          0.64477      0.98868      0.70757  1.0000
  O1          0.66837      0.63466      0.87467  1.0000
  O1          0.98985      0.37184      0.54084  1.0000
  O1          0.40038      0.05314      0.20757  1.0000
  O1          0.75661      0.28025      0.01857  1.0000
  O1          0.76639      0.49698      0.35264  1.0000
  O1          0.55158      0.28673      0.68547  1.0000
  O1          0.28854      0.76157      0.51857  1.0000
  O1          0.27876      0.54484      0.85264  1.0000
  O1          0.49357      0.75509      0.18547  1.0000
  O1          0.34881      0.78986      0.33360  1.0000
  O1          0.47468      0.70443      0.99890  1.0000
  O1          0.25166      0.57526      0.66605  1.0000
  O1          0.69634      0.25196      0.83360  1.0000
  O1          0.57047      0.33739      0.49890  1.0000
  O1          0.79349      0.46656      0.16605  1.0000
  O1          0.80074      0.53020      0.02437  1.0000
  O1          0.51537      0.29141      0.35690  1.0000
  O1          0.75976      0.24354      0.69311  1.0000
  O1          0.24441      0.51162      0.52437  1.0000
  O1          0.52978      0.75041      0.85690  1.0000
  O1          0.28538      0.79828      0.19311  1.0000
  O1          0.57638      0.77992      0.30545  1.0000
  O1          0.23352      0.47582      0.97598  1.0000
  O1          0.26403      0.81444      0.63992  1.0000
  O1          0.46877      0.26190      0.80545  1.0000
  O1          0.81162      0.56600      0.47598  1.0000
  O1          0.78112      0.22738      0.13992  1.0000
  O1          0.23605      0.33225      0.90304  1.0000
  O1          0.71366      0.93071      0.23194  1.0000
  O1          0.11477      0.80534      0.56634  1.0000
  O1          0.80909      0.70957      0.40304  1.0000
  O1          0.33149      0.11111      0.73194  1.0000
  O1          0.93037      0.23648      0.06634  1.0000
  O1          0.37803      0.24298      0.43734  1.0000
  O1          0.88927      0.66218      0.10508  1.0000
  O1          0.79396      0.14759      0.77445  1.0000
  O1          0.66712      0.79884      0.93734  1.0000
  O1          0.15588      0.37964      0.60508  1.0000
  O1          0.25119      0.89423      0.27445  1.0000
  O1          0.61178      0.57850      0.98609  1.0000
  O1          0.47481      0.05151      0.32317  1.0000
  O1          0.99000      0.43567      0.65279  1.0000
  O1          0.43336      0.46332      0.48609  1.0000
  O1          0.57033      0.99031      0.82317  1.0000
  O1          0.05515      0.60615      0.15279  1.0000
  O1          0.60784      0.58753      0.34122  1.0000
  O1          0.00624      0.44166      0.00631  1.0000
  O1          0.46595      0.03908      0.67332  1.0000
  O1          0.43731      0.45429      0.84122  1.0000
  O1          0.03891      0.60016      0.50631  1.0000
  O1          0.57920      0.00274      0.17332  1.0000
  O1          0.63338      0.15778      0.24746  1.0000
  O1          0.88256      0.49800      0.57973  1.0000
  O1          0.54397      0.40409      0.91419  1.0000
  O1          0.41177      0.88404      0.74746  1.0000
  O1          0.16259      0.54382      0.07973  1.0000
  O1          0.50118      0.63773      0.41419  1.0000
  F           0.47304      0.87865      0.26178  1.0000
  F           0.16461      0.61550      0.59439  1.0000
  F           0.42871      0.57181      0.92856  1.0000
  F           0.57211      0.16317      0.76178  1.0000
  F           0.88053      0.42632      0.09439  1.0000
  F           0.61643      0.47001      0.42856  1.0000
