data_cif

_audit_creation_method             'generated by GULP'

_symmetry_space_group_name_H-M     'P 1'
_symmetry_Int_Tables_number        1
_symmetry_cell_setting             triclinic

_cell_length_a                       12.4970
_cell_length_b                       12.5396
_cell_length_c                       30.5219
_cell_angle_alpha                   90.0529
_cell_angle_beta                    89.9626
_cell_angle_gamma                  120.0252

loop_
_atom_site_label
_atom_site_fract_x
_atom_site_fract_y
_atom_site_fract_z
_atom_site_occupancy
  Ge          0.69960      0.37570      0.03389  1.0000
  Ge          0.61242      0.30212      0.36561  1.0000
  Ge          0.69139      0.28655      0.70013  1.0000
  Ge          0.29556      0.59924      0.52981  1.0000
  Ge          0.39443      0.67379      0.86393  1.0000
  Ge          0.32043      0.69753      0.19749  1.0000
  Ge          0.35721      0.66111      0.29546  1.0000
  Ge          0.31795      0.63432      0.96160  1.0000
  Ge          0.33202      0.66785      0.62875  1.0000
  Ge          0.64507      0.30921      0.79860  1.0000
  Ge          0.67993      0.34576      0.46423  1.0000
  Ge          0.67919      0.30699      0.13215  1.0000
  Ge          0.54088      0.43231      0.96915  1.0000
  Ge          0.56009      0.08172      0.30333  1.0000
  Ge          0.90725      0.44689      0.63555  1.0000
  Ge          0.45921      0.54573      0.46501  1.0000
  Ge          0.44518      0.88762      0.79672  1.0000
  Ge          0.10306      0.53021      0.13130  1.0000
  Ge          0.40404      0.48985      0.36036  1.0000
  Ge          0.09915      0.58233      0.02652  1.0000
  Ge          0.50174      0.89040      0.69194  1.0000
  Ge          0.59998      0.48153      0.86508  1.0000
  Ge          0.89742      0.39474      0.53062  1.0000
  Ge          0.51121      0.09126      0.19914  1.0000
  Ge          0.31342      0.40211      0.84501  1.0000
  Ge          0.59415      0.88815      0.17946  1.0000
  Ge          0.10504      0.68282      0.51232  1.0000
  Ge          0.69338      0.57151      0.34316  1.0000
  Ge          0.42413      0.09648      0.67510  1.0000
  Ge          0.89120      0.29990      0.00935  1.0000
  Ge          0.39535      0.26098      0.47671  1.0000
  Ge          0.88009      0.59540      0.14324  1.0000
  Ge          0.73340      0.10779      0.80864  1.0000
  Ge          0.59998      0.71456      0.97898  1.0000
  Ge          0.13021      0.38374      0.64321  1.0000
  Ge          0.27545      0.86061      0.31193  1.0000
  Ge          0.25647      0.35376      0.94702  1.0000
  Ge          0.64032      0.87822      0.28179  1.0000
  Ge          0.11300      0.73321      0.61555  1.0000
  Ge          0.74516      0.62677      0.44604  1.0000
  Ge          0.36406      0.09245      0.77885  1.0000
  Ge          0.89665      0.24386      0.11280  1.0000
  Ge          0.32924      0.20795      0.37335  1.0000
  Ge          0.88923      0.65602      0.04090  1.0000
  Ge          0.78668      0.10057      0.70610  1.0000
  Ge          0.67585      0.76509      0.87659  1.0000
  Ge          0.10574      0.31862      0.53906  1.0000
  Ge          0.22744      0.88526      0.20936  1.0000
  Ge          0.97594      0.12844      0.96303  1.0000
  Si          0.86013      0.82448      0.29819  1.0000
  Ge          0.16344      0.01129      0.63159  1.0000
  Si          0.01842      0.84731      0.46415  1.0000
  Ge          0.13644      0.14633      0.79578  1.0000
  Si          0.84561      0.97083      0.13141  1.0000
  Ge          0.09769      0.93112      0.36338  1.0000
  Ge          0.84684      0.88708      0.03117  1.0000
  Si          0.05357      0.14129      0.69511  1.0000
  Si          0.90119      0.03347      0.86250  1.0000
  Ge          0.14544      0.08536      0.52861  1.0000
  Ge          0.95161      0.84257      0.19748  1.0000
  O1          0.93539      0.02055      0.00349  1.0000
  O3          0.96051      0.88395      0.33670  1.0000
  O3          0.09733      0.05498      0.67248  1.0000
  O3          0.05446      0.94827      0.50203  1.0000
  O3          0.02582      0.07293      0.83588  1.0000
  O3          0.90964      0.93612      0.17021  1.0000
  O1          0.32143      0.53825      0.32920  1.0000
  O1          0.45754      0.75917      0.66138  1.0000
  O1          0.22840      0.66897      0.99481  1.0000
  O1          0.67952      0.42619      0.83534  1.0000
  O1          0.56357      0.22499      0.16930  1.0000
  O1          0.76397      0.31287      0.50064  1.0000
  O1          0.56770      0.34113      0.00161  1.0000
  O1          0.78945      0.41921      0.66840  1.0000
  O1          0.64869      0.20402      0.33456  1.0000
  O1          0.42459      0.63481      0.49554  1.0000
  O1          0.22902      0.57160      0.16143  1.0000
  O1          0.35996      0.76355      0.82744  1.0000
  O1          0.13081      0.22497      0.96929  1.0000
  O3          0.76953      0.87925      0.30414  1.0000
  O1          0.10991      0.85749      0.63907  1.0000
  O3          0.87205      0.75746      0.46789  1.0000
  O1          0.22853      0.08159      0.79816  1.0000
  O3          0.90503      0.11775      0.13258  1.0000
  O1          0.19786      0.08276      0.35221  1.0000
  O1          0.89699      0.78634      0.01873  1.0000
  O3          0.91240      0.09708      0.68257  1.0000
  O3          0.80828      0.88906      0.85439  1.0000
  O1          0.09486      0.18630      0.51712  1.0000
  O1          0.10556      0.89767      0.18836  1.0000
  O3          0.93178      0.86097      0.25246  1.0000
  O1          0.12102      0.04589      0.58310  1.0000
  O3          0.93604      0.05234      0.91360  1.0000
  O3          0.05996      0.12286      0.74694  1.0000
  O3          0.87304      0.92469      0.08625  1.0000
  O3          0.06085      0.91814      0.41850  1.0000
  O1          0.89846      0.20795      0.96864  1.0000
  O3          0.78348      0.67680      0.30261  1.0000
  O1          0.32152      0.08818      0.63544  1.0000
  O3          0.08841      0.77049      0.47144  1.0000
  O1          0.22459      0.30095      0.80402  1.0000
  O3          0.69880      0.90467      0.13840  1.0000
  O1          0.17006      0.85003      0.35145  1.0000
  O1          0.69285      0.81779      0.01913  1.0000
  O3          0.13763      0.28393      0.68188  1.0000
  O3          0.83526      0.11028      0.84889  1.0000
  O1          0.29955      0.15840      0.51659  1.0000
  O1          0.87326      0.69088      0.18346  1.0000
  O1          0.32237      0.61110      0.24215  1.0000
  O1          0.38206      0.68070      0.57573  1.0000
  O1          0.30585      0.67233      0.90847  1.0000
  O1          0.71577      0.36829      0.74938  1.0000
  O1          0.61862      0.31848      0.08315  1.0000
  O1          0.69846      0.30807      0.41191  1.0000
  O1          0.38365      0.34235      0.95654  1.0000
  O1          0.65321      0.01722      0.29180  1.0000
  O1          0.97555      0.60473      0.62459  1.0000
  O1          0.61736      0.63847      0.45430  1.0000
  O1          0.38422      0.98398      0.80492  1.0000
  O1          0.00666      0.37202      0.13883  1.0000
  O1          0.33384      0.33432      0.34967  1.0000
  O1          0.03267      0.67361      0.03151  1.0000
  O1          0.66069      0.95766      0.69652  1.0000
  O1          0.66877      0.63657      0.85316  1.0000
  O1          0.98140      0.32401      0.51810  1.0000
  O1          0.35717      0.00470      0.18566  1.0000
  O1          0.74694      0.28304      0.00687  1.0000
  O1          0.68084      0.43267      0.33141  1.0000
  O1          0.55180      0.24004      0.67243  1.0000
  O1          0.22990      0.66904      0.49840  1.0000
  O1          0.33240      0.54215      0.83089  1.0000
  O1          0.45389      0.76716      0.16467  1.0000
  O1          0.26099      0.71729      0.31082  1.0000
  O1          0.46997      0.72774      0.97809  1.0000
  O1          0.27224      0.51573      0.64511  1.0000
  O1          0.70296      0.22248      0.82253  1.0000
  O1          0.52637      0.24972      0.47837  1.0000
  O1          0.76531      0.45019      0.15658  1.0000
  O1          0.76804      0.53191      0.01634  1.0000
  O1          0.45262      0.19371      0.35755  1.0000
  O1          0.78027      0.21940      0.68169  1.0000
  O1          0.24122      0.44032      0.52097  1.0000
  O1          0.55336      0.78013      0.86077  1.0000
  O1          0.21184      0.74759      0.19365  1.0000
  O1          0.51180      0.76117      0.30629  1.0000
  O1          0.26045      0.47921      0.97167  1.0000
  O1          0.23406      0.72549      0.63898  1.0000
  O1          0.48622      0.23434      0.79199  1.0000
  O1          0.73270      0.50065      0.47254  1.0000
  O1          0.75430      0.22378      0.12521  1.0000
  O1          0.22451      0.34464      0.89175  1.0000
  O1          0.64772      0.85408      0.22656  1.0000
  O1          0.13513      0.76643      0.56024  1.0000
  O1          0.77642      0.62922      0.39110  1.0000
  O1          0.34139      0.06883      0.72328  1.0000
  O1          0.91999      0.24456      0.05720  1.0000
  O1          0.30945      0.20351      0.42963  1.0000
  O1          0.85719      0.65636      0.09612  1.0000
  O1          0.81712      0.13346      0.76130  1.0000
  O1          0.69185      0.76920      0.93281  1.0000
  O1          0.10217      0.30157      0.59542  1.0000
  O1          0.22235      0.89814      0.26564  1.0000
  O1          0.56069      0.56741      0.99267  1.0000
  O1          0.42391      0.96553      0.32612  1.0000
  O1          0.02139      0.42174      0.65734  1.0000
  O1          0.43651      0.40987      0.48863  1.0000
  O1          0.60210      0.96820      0.80783  1.0000
  O1          0.02052      0.60418      0.14278  1.0000
  O1          0.55451      0.56879      0.34192  1.0000
  O1          0.00356      0.44923      0.99792  1.0000
  O1          0.46236      0.98477      0.66350  1.0000
  O1          0.44922      0.39863      0.84746  1.0000
  O1          0.96771      0.54506      0.51279  1.0000
  O1          0.59786      0.02671      0.18237  1.0000
  O1          0.52522      0.12549      0.25375  1.0000
  O1          0.86104      0.37422      0.58509  1.0000
  O1          0.61946      0.46499      0.91962  1.0000
  O1          0.42908      0.84821      0.74152  1.0000
  O1          0.14237      0.55290      0.07598  1.0000
  O1          0.38531      0.51137      0.41452  1.0000
  F           0.41433      0.84643      0.23787  1.0000
  F           0.14686      0.54002      0.56960  1.0000
  F           0.44734      0.57703      0.90494  1.0000
  F           0.59956      0.13445      0.73619  1.0000
  F           0.85406      0.43762      0.07054  1.0000
  F           0.55080      0.39341      0.40202  1.0000
