data_cif

_audit_creation_method             'generated by GULP'

_symmetry_space_group_name_H-M     'P 1'
_symmetry_Int_Tables_number        1
_symmetry_cell_setting             triclinic

_cell_length_a                       12.5380
_cell_length_b                       12.5087
_cell_length_c                       30.6323
_cell_angle_alpha                   90.0570
_cell_angle_beta                    90.1413
_cell_angle_gamma                  119.9702

loop_
_atom_site_label
_atom_site_fract_x
_atom_site_fract_y
_atom_site_fract_z
_atom_site_occupancy
  Ge          0.69960      0.37570      0.03389  1.0000
  Ge          0.61287      0.30578      0.36666  1.0000
  Ge          0.68033      0.29207      0.70059  1.0000
  Ge          0.29440      0.60258      0.53364  1.0000
  Ge          0.38271      0.67541      0.86725  1.0000
  Ge          0.31553      0.69368      0.19975  1.0000
  Ge          0.35730      0.66570      0.29776  1.0000
  Ge          0.31245      0.63380      0.96529  1.0000
  Ge          0.31994      0.67627      0.63096  1.0000
  Ge          0.64028      0.31643      0.79914  1.0000
  Ge          0.68410      0.34946      0.46487  1.0000
  Ge          0.67601      0.30785      0.13175  1.0000
  Ge          0.53553      0.42797      0.96834  1.0000
  Ge          0.56158      0.08987      0.30177  1.0000
  Ge          0.89511      0.45309      0.63343  1.0000
  Ge          0.46142      0.55581      0.46705  1.0000
  Ge          0.43502      0.89144      0.80280  1.0000
  Ge          0.09922      0.52912      0.13320  1.0000
  Ge          0.40928      0.49851      0.36229  1.0000
  Ge          0.09236      0.57990      0.02921  1.0000
  Ge          0.48401      0.89319      0.69843  1.0000
  Ge          0.58757      0.48342      0.86331  1.0000
  Ge          0.90244      0.40013      0.52962  1.0000
  Ge          0.50688      0.08916      0.19744  1.0000
  Ge          0.30207      0.40404      0.84585  1.0000
  Ge          0.58836      0.88225      0.18038  1.0000
  Ge          0.10431      0.68372      0.51193  1.0000
  Ge          0.69394      0.57708      0.34536  1.0000
  Ge          0.40517      0.10129      0.68307  1.0000
  Ge          0.88900      0.29533      0.01219  1.0000
  Ge          0.39857      0.26737      0.47773  1.0000
  Ge          0.87818      0.59500      0.14406  1.0000
  Ge          0.71698      0.11238      0.81439  1.0000
  Ge          0.59851      0.71689      0.97889  1.0000
  Ge          0.11758      0.39133      0.64562  1.0000
  Ge          0.27945      0.86949      0.31305  1.0000
  Ge          0.24957      0.35007      0.94972  1.0000
  Ge          0.63996      0.88344      0.28285  1.0000
  Ge          0.10196      0.73717      0.61481  1.0000
  Ge          0.74691      0.63313      0.44929  1.0000
  Ge          0.35799      0.09919      0.78541  1.0000
  Ge          0.89269      0.24371      0.11545  1.0000
  Ge          0.33228      0.21245      0.37596  1.0000
  Ge          0.88509      0.65710      0.04268  1.0000
  Ge          0.76627      0.09844      0.71172  1.0000
  Ge          0.66352      0.76927      0.87680  1.0000
  Ge          0.10870      0.32202      0.54487  1.0000
  Ge          0.22391      0.88341      0.21066  1.0000
  Ge          0.97018      0.12245      0.96236  1.0000
  Ge          0.86546      0.83110      0.29558  1.0000
  Ge          0.15459      0.01487      0.62801  1.0000
  Ge          0.02685      0.85949      0.46138  1.0000
  Ge          0.13194      0.14729      0.79768  1.0000
  Ge          0.84192      0.96515      0.12907  1.0000
  Si          0.10560      0.94199      0.36054  1.0000
  Si          0.84420      0.88527      0.02801  1.0000
  Ge          0.04214      0.14161      0.69552  1.0000
  Si          0.89042      0.03862      0.86163  1.0000
  Si          0.15419      0.09593      0.52733  1.0000
  Si          0.95255      0.83939      0.19505  1.0000
  O3          0.92260      0.99407      0.99421  1.0000
  O3          0.99772      0.90931      0.32596  1.0000
  O1          0.06664      0.06135      0.65506  1.0000
  O3          0.07879      0.99312      0.49085  1.0000
  O3          0.99861      0.07169      0.82742  1.0000
  O3          0.92457      0.91832      0.16048  1.0000
  O1          0.32313      0.54227      0.33113  1.0000
  O1          0.43684      0.76244      0.66719  1.0000
  O1          0.22343      0.66723      0.99882  1.0000
  O1          0.67452      0.44056      0.83241  1.0000
  O1          0.55779      0.22233      0.16744  1.0000
  O1          0.77148      0.31413      0.49866  1.0000
  O1          0.57124      0.34097      0.99944  1.0000
  O1          0.77089      0.41565      0.66394  1.0000
  O1          0.64921      0.21222      0.33307  1.0000
  O1          0.42147      0.63897      0.49847  1.0000
  O1          0.22359      0.56797      0.16381  1.0000
  O1          0.34653      0.76888      0.83356  1.0000
  O1          0.12320      0.22161      0.97161  1.0000
  O1          0.76719      0.88503      0.30650  1.0000
  O1          0.09776      0.86104      0.63786  1.0000
  O1          0.87376      0.76202      0.47118  1.0000
  O1          0.23220      0.09685      0.81037  1.0000
  O1          0.89899      0.11952      0.13760  1.0000
  O3          0.19942      0.08731      0.35514  1.0000
  O3          0.89335      0.78986      0.02161  1.0000
  O1          0.88667      0.08430      0.69213  1.0000
  O3          0.79505      0.89397      0.85534  1.0000
  O3          0.09790      0.18621      0.52554  1.0000
  O3          0.09813      0.89207      0.19147  1.0000
  O3          0.91329      0.86270      0.24209  1.0000
  O3          0.13419      0.02664      0.57279  1.0000
  O3          0.95144      0.07082      0.90915  1.0000
  O1          0.08711      0.11035      0.74420  1.0000
  O3          0.87116      0.94451      0.07574  1.0000
  O3          0.04291      0.90545      0.40757  1.0000
  O1          0.89090      0.19788      0.97228  1.0000
  O1          0.79032      0.67614      0.30549  1.0000
  O1          0.30582      0.09792      0.64273  1.0000
  O1          0.10424      0.78244      0.47220  1.0000
  O1          0.20550      0.30343      0.80606  1.0000
  O1          0.68840      0.88787      0.14007  1.0000
  O3          0.17857      0.86838      0.35273  1.0000
  O3          0.69862      0.81697      0.01914  1.0000
  O1          0.11818      0.29763      0.68742  1.0000
  O3          0.81949      0.11429      0.85382  1.0000
  O3          0.29958      0.17140      0.51850  1.0000
  O3          0.87958      0.69401      0.18502  1.0000
  O1          0.31585      0.61033      0.24538  1.0000
  O1          0.37769      0.65791      0.58254  1.0000
  O1          0.32275      0.69967      0.91538  1.0000
  O1          0.68022      0.37313      0.74678  1.0000
  O1          0.61724      0.32175      0.08280  1.0000
  O1          0.67258      0.28216      0.41507  1.0000
  O1          0.37651      0.36181      0.97369  1.0000
  O1          0.65293      0.02307      0.29165  1.0000
  O1          0.99593      0.60978      0.64200  1.0000
  O1          0.62027      0.62198      0.47333  1.0000
  O1          0.34413      0.95890      0.79280  1.0000
  O1          0.00057      0.37214      0.14186  1.0000
  O1          0.31827      0.33993      0.36579  1.0000
  O1          0.02805      0.67334      0.03398  1.0000
  O1          0.63759      0.98311      0.68623  1.0000
  O1          0.67775      0.64222      0.86641  1.0000
  O1          0.96616      0.30633      0.53492  1.0000
  O1          0.35159      0.00223      0.18605  1.0000
  O1          0.74552      0.27963      0.00901  1.0000
  O1          0.70515      0.44686      0.34083  1.0000
  O1          0.54563      0.22367      0.66947  1.0000
  O1          0.24729      0.69805      0.50914  1.0000
  O1          0.29112      0.53431      0.84099  1.0000
  O1          0.44812      0.75875      0.16750  1.0000
  O1          0.26555      0.72599      0.31441  1.0000
  O1          0.45645      0.69767      0.99002  1.0000
  O1          0.23297      0.53693      0.65792  1.0000
  O1          0.73219      0.25659      0.81591  1.0000
  O1          0.54083      0.28800      0.48964  1.0000
  O1          0.76240      0.45022      0.15741  1.0000
  O1          0.76997      0.53158      0.01697  1.0000
  O1          0.45580      0.21692      0.35077  1.0000
  O1          0.78519      0.23884      0.69742  1.0000
  O1          0.22434      0.44550      0.51859  1.0000
  O1          0.53965      0.76488      0.85169  1.0000
  O1          0.20895      0.74563      0.19543  1.0000
  O1          0.51286      0.76375      0.30716  1.0000
  O1          0.23329      0.47423      0.96344  1.0000
  O1          0.24761      0.76145      0.62342  1.0000
  O1          0.48560      0.21901      0.80966  1.0000
  O1          0.76349      0.50913      0.46295  1.0000
  O1          0.74923      0.22273      0.12582  1.0000
  O1          0.24385      0.32529      0.89414  1.0000
  O1          0.64832      0.85863      0.22792  1.0000
  O1          0.07175      0.73495      0.55972  1.0000
  O1          0.75122      0.65681      0.39372  1.0000
  O1          0.34767      0.12695      0.73070  1.0000
  O1          0.91866      0.24222      0.06018  1.0000
  O1          0.33396      0.18350      0.43094  1.0000
  O1          0.85033      0.65394      0.09748  1.0000
  O1          0.77092      0.08118      0.76747  1.0000
  O1          0.66363      0.79839      0.93188  1.0000
  O1          0.14249      0.32643      0.59978  1.0000
  O1          0.22360      0.90063      0.26645  1.0000
  O1          0.60010      0.58221      0.98246  1.0000
  O1          0.42744      0.97630      0.32608  1.0000
  O1          0.97482      0.37613      0.64391  1.0000
  O1          0.39494      0.40117      0.47997  1.0000
  O1          0.56947      0.00499      0.82742  1.0000
  O1          0.01872      0.60583      0.14308  1.0000
  O1          0.54506      0.54305      0.33466  1.0000
  O1          0.99854      0.44562      0.00067  1.0000
  O1          0.39895      0.96075      0.68296  1.0000
  O1          0.45094      0.43758      0.83573  1.0000
  O1          0.99554      0.53291      0.50047  1.0000
  O1          0.58922      0.02025      0.18035  1.0000
  O1          0.52715      0.12914      0.25158  1.0000
  O1          0.85703      0.43181      0.57826  1.0000
  O1          0.56531      0.41729      0.91367  1.0000
  O1          0.46780      0.85185      0.75236  1.0000
  O1          0.13706      0.54888      0.07810  1.0000
  O1          0.43354      0.56799      0.41224  1.0000
  F           0.41298      0.84638      0.23944  1.0000
  F           0.14145      0.54331      0.57313  1.0000
  F           0.44249      0.58355      0.90612  1.0000
  F           0.58071      0.13563      0.74171  1.0000
  F           0.85218      0.43558      0.07266  1.0000
  F           0.55346      0.39886      0.40538  1.0000
