data_cif

_audit_creation_method             'generated by GULP'

_symmetry_space_group_name_H-M     'P 1'
_symmetry_Int_Tables_number        1
_symmetry_cell_setting             triclinic

_cell_length_a                       12.5665
_cell_length_b                       12.4949
_cell_length_c                       30.5245
_cell_angle_alpha                   90.0724
_cell_angle_beta                    90.0132
_cell_angle_gamma                  119.7798

loop_
_atom_site_label
_atom_site_fract_x
_atom_site_fract_y
_atom_site_fract_z
_atom_site_occupancy
  Ge          0.69960      0.37570      0.03389  1.0000
  Ge          0.66454      0.33684      0.36777  1.0000
  Ge          0.70148      0.34084      0.70019  1.0000
  Ge          0.34329      0.66599      0.53303  1.0000
  Ge          0.37426      0.69910      0.86828  1.0000
  Ge          0.34052      0.69464      0.19985  1.0000
  Ge          0.41237      0.72142      0.29800  1.0000
  Ge          0.33823      0.63018      0.96693  1.0000
  Ge          0.31362      0.70018      0.63214  1.0000
  Ge          0.62930      0.31395      0.79825  1.0000
  Ge          0.70702      0.41186      0.46574  1.0000
  Ge          0.73019      0.33590      0.13215  1.0000
  Ge          0.52737      0.42160      0.96880  1.0000
  Ge          0.61524      0.11979      0.30196  1.0000
  Ge          0.91804      0.51063      0.63374  1.0000
  Ge          0.51860      0.62094      0.46893  1.0000
  Ge          0.42545      0.91590      0.80249  1.0000
  Ge          0.12362      0.52472      0.13374  1.0000
  Ge          0.46586      0.56161      0.36425  1.0000
  Ge          0.11889      0.57671      0.02947  1.0000
  Ge          0.48219      0.91717      0.69749  1.0000
  Ge          0.57272      0.47252      0.86406  1.0000
  Ge          0.92441      0.46611      0.52931  1.0000
  Ge          0.55969      0.11803      0.19708  1.0000
  Ge          0.29004      0.41413      0.85478  1.0000
  Ge          0.62634      0.89480      0.18675  1.0000
  Ge          0.14329      0.74990      0.52041  1.0000
  Ge          0.74821      0.62145      0.35323  1.0000
  Ge          0.41514      0.14069      0.68690  1.0000
  Ge          0.89916      0.29312      0.01904  1.0000
  Ge          0.43938      0.33244      0.48798  1.0000
  Ge          0.91964      0.60769      0.15189  1.0000
  Ge          0.70620      0.12219      0.82158  1.0000
  Ge          0.60868      0.71102      0.98652  1.0000
  Ge          0.12325      0.42777      0.65023  1.0000
  Ge          0.33519      0.91358      0.32046  1.0000
  Ge          0.24535      0.34780      0.95853  1.0000
  Ge          0.69083      0.91088      0.28911  1.0000
  Ge          0.12516      0.79300      0.62434  1.0000
  Ge          0.80058      0.69471      0.45632  1.0000
  Ge          0.35042      0.12545      0.78944  1.0000
  Ge          0.91800      0.24230      0.12193  1.0000
  Ge          0.38485      0.27596      0.38512  1.0000
  Ge          0.91489      0.65716      0.04953  1.0000
  Ge          0.76606      0.12272      0.71801  1.0000
  Ge          0.65397      0.75926      0.88347  1.0000
  Ge          0.12743      0.38368      0.54764  1.0000
  Ge          0.27580      0.91292      0.21701  1.0000
  Ge          0.97237      0.11611      0.96807  1.0000
  Ge          0.92071      0.86716      0.29973  1.0000
  Ge          0.16639      0.06683      0.63463  1.0000
  Si          0.06916      0.91824      0.46738  1.0000
  Ge          0.12044      0.16910      0.79963  1.0000
  Ge          0.87326      0.96556      0.13342  1.0000
  Ge          0.16080      0.99491      0.36750  1.0000
  Si          0.86100      0.87696      0.03254  1.0000
  Si          0.04104      0.17799      0.69933  1.0000
  Ge          0.87970      0.03659      0.86570  1.0000
  Ge          0.17914      0.15702      0.53162  1.0000
  Si          0.00150      0.85907      0.19939  1.0000
  O3          0.92234      0.97805      0.99454  1.0000
  O1          0.05567      0.95708      0.32618  1.0000
  O3          0.07395      0.11279      0.66046  1.0000
  O3          0.11402      0.04880      0.49012  1.0000
  O1          0.98257      0.07565      0.82350  1.0000
  O3          0.96574      0.92207      0.16053  1.0000
  O1          0.37755      0.59231      0.33176  1.0000
  O1          0.44251      0.79250      0.66676  1.0000
  O1          0.24206      0.66622      0.99916  1.0000
  O1          0.66234      0.44369      0.83159  1.0000
  O1          0.60126      0.24297      0.16648  1.0000
  O1          0.80359      0.37693      0.49796  1.0000
  O1          0.57867      0.34043      0.99930  1.0000
  O1          0.78599      0.45850      0.66416  1.0000
  O1          0.69956      0.25076      0.33296  1.0000
  O1          0.46541      0.70188      0.49879  1.0000
  O1          0.25590      0.57592      0.16411  1.0000
  O1          0.33968      0.78559      0.83351  1.0000
  O1          0.12289      0.21633      0.98025  1.0000
  O1          0.82168      0.92001      0.31129  1.0000
  O1          0.11535      0.91518      0.64667  1.0000
  O3          0.92736      0.82468      0.47837  1.0000
  O1          0.22022      0.11755      0.81174  1.0000
  O1          0.92779      0.11903      0.14308  1.0000
  O1          0.25437      0.15077      0.36401  1.0000
  O3          0.91695      0.78709      0.02736  1.0000
  O3          0.89477      0.11823      0.69909  1.0000
  O1          0.78225      0.88143      0.86040  1.0000
  O1          0.12083      0.25368      0.52451  1.0000
  O3          0.14775      0.91775      0.19753  1.0000
  O3          0.95666      0.88811      0.24448  1.0000
  O1          0.14213      0.07895      0.57988  1.0000
  O1          0.96140      0.07882      0.91337  1.0000
  O3          0.09217      0.15387      0.74385  1.0000
  O3          0.89317      0.94765      0.07842  1.0000
  O3          0.07937      0.94265      0.41543  1.0000
  O1          0.89131      0.18937      0.97933  1.0000
  O1          0.85052      0.71442      0.31312  1.0000
  O1          0.31906      0.14765      0.64704  1.0000
  O3          0.14930      0.85617      0.48156  1.0000
  O1          0.18586      0.32000      0.81522  1.0000
  O1          0.72179      0.88717      0.14680  1.0000
  O1          0.24498      0.92252      0.36125  1.0000
  O3          0.71434      0.80005      0.02688  1.0000
  O3          0.10661      0.32407      0.69145  1.0000
  O1          0.79710      0.11194      0.86187  1.0000
  O1          0.33566      0.24245      0.52781  1.0000
  O3          0.93530      0.71230      0.19289  1.0000
  O1          0.35399      0.63769      0.24934  1.0000
  O1          0.39642      0.70051      0.58601  1.0000
  O1          0.33913      0.71548      0.92112  1.0000
  O1          0.68944      0.39827      0.74981  1.0000
  O1          0.64696      0.33958      0.08678  1.0000
  O1          0.70352      0.32380      0.42039  1.0000
  O1          0.37315      0.35226      0.98053  1.0000
  O1          0.70749      0.05430      0.29781  1.0000
  O1          0.00565      0.66400      0.64762  1.0000
  O1          0.67452      0.69347      0.47882  1.0000
  O1          0.33397      0.98232      0.79829  1.0000
  O1          0.03700      0.37043      0.14620  1.0000
  O1          0.37546      0.40445      0.37556  1.0000
  O1          0.05362      0.66958      0.04044  1.0000
  O1          0.64060      0.01160      0.69153  1.0000
  O1          0.66252      0.62978      0.87574  1.0000
  O1          0.98901      0.37327      0.54027  1.0000
  O1          0.40165      0.02310      0.19044  1.0000
  O1          0.75666      0.27995      0.01881  1.0000
  O1          0.75784      0.48956      0.35247  1.0000
  O1          0.55913      0.25918      0.67526  1.0000
  O1          0.28559      0.76195      0.51864  1.0000
  O1          0.28014      0.54601      0.85358  1.0000
  O1          0.48229      0.77720      0.17468  1.0000
  O1          0.32006      0.77030      0.32414  1.0000
  O1          0.47072      0.69814      0.99975  1.0000
  O1          0.24636      0.56646      0.66452  1.0000
  O1          0.72066      0.26523      0.82538  1.0000
  O1          0.57761      0.34501      0.49989  1.0000
  O1          0.79755      0.46799      0.16563  1.0000
  O1          0.79940      0.53022      0.02403  1.0000
  O1          0.50932      0.28107      0.35948  1.0000
  O1          0.78338      0.26393      0.70558  1.0000
  O1          0.24346      0.51155      0.52266  1.0000
  O1          0.52824      0.75245      0.85835  1.0000
  O1          0.25828      0.77121      0.20531  1.0000
  O1          0.56848      0.79133      0.31452  1.0000
  O1          0.23211      0.47092      0.97552  1.0000
  O1          0.26224      0.80700      0.63922  1.0000
  O1          0.47303      0.24524      0.81472  1.0000
  O1          0.81285      0.57157      0.47349  1.0000
  O1          0.78073      0.22781      0.13698  1.0000
  O1          0.23502      0.32927      0.90211  1.0000
  O1          0.69055      0.87724      0.23407  1.0000
  O1          0.11281      0.80244      0.56816  1.0000
  O1          0.80471      0.70956      0.39999  1.0000
  O1          0.35082      0.15763      0.73429  1.0000
  O1          0.93302      0.23822      0.06571  1.0000
  O1          0.37940      0.24788      0.44041  1.0000
  O1          0.88838      0.66295      0.10459  1.0000
  O1          0.76373      0.09772      0.77346  1.0000
  O1          0.66232      0.79398      0.93854  1.0000
  O1          0.15535      0.37434      0.60258  1.0000
  O1          0.27814      0.93915      0.27246  1.0000
  O1          0.60665      0.57230      0.98660  1.0000
  O1          0.48378      0.02670      0.33119  1.0000
  O1          0.98511      0.42494      0.64858  1.0000
  O1          0.44292      0.47221      0.48866  1.0000
  O1          0.55733      0.00883      0.83175  1.0000
  O1          0.05726      0.60982      0.15037  1.0000
  O1          0.60133      0.58421      0.34067  1.0000
  O1          0.00466      0.44155      0.00582  1.0000
  O1          0.41259      0.00333      0.68511  1.0000
  O1          0.43588      0.44910      0.84137  1.0000
  O1          0.03822      0.60237      0.50633  1.0000
  O1          0.63127      0.03333      0.18535  1.0000
  O1          0.58481      0.15993      0.25214  1.0000
  O1          0.88173      0.49990      0.57930  1.0000
  O1          0.54379      0.39933      0.91446  1.0000
  O1          0.45504      0.87551      0.75252  1.0000
  O1          0.16014      0.54083      0.07931  1.0000
  O1          0.49645      0.63613      0.41448  1.0000
  F           0.47199      0.87374      0.25965  1.0000
  F           0.16293      0.60851      0.59284  1.0000
  F           0.42681      0.56903      0.92853  1.0000
  F           0.57048      0.16288      0.76028  1.0000
  F           0.88075      0.43000      0.09304  1.0000
  F           0.61472      0.46950      0.42809  1.0000
