data_cif

_audit_creation_method             'generated by GULP'

_symmetry_space_group_name_H-M     'P 1'
_symmetry_Int_Tables_number        1
_symmetry_cell_setting             triclinic

_cell_length_a                       12.5367
_cell_length_b                       12.5617
_cell_length_c                       30.5303
_cell_angle_alpha                   90.0606
_cell_angle_beta                    89.8947
_cell_angle_gamma                  120.0092

loop_
_atom_site_label
_atom_site_fract_x
_atom_site_fract_y
_atom_site_fract_z
_atom_site_occupancy
  Ge          0.69960      0.37570      0.03389  1.0000
  Ge          0.59792      0.29946      0.36758  1.0000
  Ge          0.67902      0.27456      0.70130  1.0000
  Ge          0.28999      0.59371      0.53532  1.0000
  Ge          0.38863      0.67134      0.86778  1.0000
  Ge          0.30997      0.68715      0.20098  1.0000
  Ge          0.34694      0.66048      0.30014  1.0000
  Ge          0.31639      0.62756      0.96601  1.0000
  Ge          0.31379      0.65737      0.63448  1.0000
  Ge          0.63890      0.30474      0.79990  1.0000
  Ge          0.67208      0.34117      0.46529  1.0000
  Ge          0.66971      0.30273      0.13211  1.0000
  Ge          0.53721      0.42804      0.96834  1.0000
  Ge          0.54798      0.08349      0.30158  1.0000
  Ge          0.89422      0.43853      0.63637  1.0000
  Ge          0.45108      0.54064      0.46995  1.0000
  Ge          0.43795      0.88663      0.80347  1.0000
  Ge          0.09282      0.52129      0.13718  1.0000
  Ge          0.39140      0.48773      0.36584  1.0000
  Ge          0.09869      0.57884      0.03229  1.0000
  Ge          0.48857      0.87824      0.69873  1.0000
  Ge          0.59580      0.48176      0.86405  1.0000
  Ge          0.88922      0.38740      0.53159  1.0000
  Ge          0.50179      0.08339      0.19632  1.0000
  Ge          0.30866      0.40322      0.84517  1.0000
  Ge          0.58010      0.87861      0.17997  1.0000
  Ge          0.09998      0.67390      0.51470  1.0000
  Ge          0.67825      0.56823      0.34554  1.0000
  Ge          0.40945      0.08621      0.68005  1.0000
  Ge          0.88917      0.29413      0.01336  1.0000
  Ge          0.38938      0.25802      0.48045  1.0000
  Ge          0.87130      0.58495      0.14790  1.0000
  Ge          0.72280      0.10507      0.81323  1.0000
  Ge          0.59953      0.71121      0.97946  1.0000
  Ge          0.11398      0.37315      0.64618  1.0000
  Ge          0.25929      0.86200      0.30985  1.0000
  Ge          0.25368      0.34733      0.94774  1.0000
  Ge          0.62847      0.87806      0.28453  1.0000
  Ge          0.09731      0.72396      0.61752  1.0000
  Ge          0.73393      0.62069      0.44772  1.0000
  Ge          0.35555      0.08827      0.78296  1.0000
  Ge          0.88632      0.23618      0.11616  1.0000
  Ge          0.31617      0.20513      0.37793  1.0000
  Ge          0.89205      0.65517      0.04471  1.0000
  Ge          0.77133      0.08572      0.70968  1.0000
  Ge          0.67049      0.76379      0.87643  1.0000
  Ge          0.09780      0.31389      0.54200  1.0000
  Ge          0.21699      0.87435      0.20700  1.0000
  Ge          0.97298      0.12348      0.96441  1.0000
  Ge          0.85650      0.82765      0.30037  1.0000
  Ge          0.14999      0.00237      0.63459  1.0000
  Ge          0.01528      0.84257      0.46480  1.0000
  Ge          0.13120      0.14564      0.79875  1.0000
  Si          0.83239      0.96206      0.13391  1.0000
  Si          0.09337      0.93694      0.36482  1.0000
  Ge          0.84574      0.88517      0.03314  1.0000
  Si          0.04035      0.13060      0.69866  1.0000
  Si          0.89378      0.03271      0.86434  1.0000
  Ge          0.14115      0.08396      0.53204  1.0000
  Ge          0.94590      0.83558      0.19766  1.0000
  O1          0.93683      0.01777      0.00548  1.0000
  O3          0.96339      0.89396      0.34208  1.0000
  O3          0.08484      0.04450      0.67641  1.0000
  O1          0.05209      0.94820      0.50590  1.0000
  O3          0.02186      0.07854      0.83973  1.0000
  O3          0.89641      0.92390      0.17134  1.0000
  O1          0.31105      0.54188      0.33619  1.0000
  O1          0.43399      0.74344      0.66954  1.0000
  O1          0.23119      0.66069      0.00178  1.0000
  O1          0.67484      0.42657      0.83429  1.0000
  O1          0.54665      0.21411      0.16565  1.0000
  O1          0.75776      0.30749      0.50055  1.0000
  O1          0.57065      0.34075      0.00011  1.0000
  O1          0.77369      0.40538      0.66838  1.0000
  O1          0.63236      0.20642      0.33258  1.0000
  O1          0.42090      0.62981      0.50221  1.0000
  O1          0.21428      0.55469      0.16864  1.0000
  O1          0.35166      0.76634      0.83557  1.0000
  O1          0.12879      0.21644      0.96864  1.0000
  O1          0.76152      0.88842      0.30546  1.0000
  O1          0.08963      0.84693      0.63985  1.0000
  O1          0.85955      0.75198      0.46840  1.0000
  O1          0.22376      0.08263      0.80384  1.0000
  O3          0.88545      0.10740      0.13818  1.0000
  O3          0.18534      0.08041      0.35528  1.0000
  O1          0.89978      0.78625      0.02364  1.0000
  O3          0.89827      0.08246      0.68739  1.0000
  O3          0.80047      0.89012      0.85396  1.0000
  O1          0.09115      0.18448      0.51954  1.0000
  O1          0.09581      0.88399      0.18405  1.0000
  O1          0.93555      0.86394      0.25216  1.0000
  O1          0.11573      0.04789      0.58695  1.0000
  O3          0.92344      0.04423      0.91596  1.0000
  O3          0.05130      0.11688      0.75064  1.0000
  O3          0.86491      0.92414      0.08806  1.0000
  O3          0.07036      0.92290      0.41677  1.0000
  O1          0.90083      0.20690      0.97177  1.0000
  O1          0.76841      0.67131      0.30520  1.0000
  O1          0.30665      0.07190      0.63968  1.0000
  O1          0.08696      0.75901      0.47282  1.0000
  O1          0.21954      0.30123      0.80467  1.0000
  O3          0.68525      0.88962      0.14017  1.0000
  O3          0.15481      0.85781      0.34916  1.0000
  O1          0.69340      0.81308      0.01954  1.0000
  O3          0.12016      0.27268      0.68466  1.0000
  O3          0.82812      0.11067      0.85224  1.0000
  O1          0.29535      0.15501      0.52033  1.0000
  O1          0.86294      0.68115      0.18713  1.0000
  O1          0.28182      0.60405      0.25004  1.0000
  O1          0.37014      0.67489      0.58201  1.0000
  O1          0.30100      0.66587      0.91348  1.0000
  O1          0.67747      0.35759      0.74723  1.0000
  O1          0.61658      0.29147      0.07960  1.0000
  O1          0.68720      0.30356      0.41237  1.0000
  O1          0.38117      0.33568      0.95636  1.0000
  O1          0.60656      0.98557      0.31020  1.0000
  O1          0.95900      0.59531      0.62543  1.0000
  O1          0.60711      0.63274      0.45706  1.0000
  O1          0.34480      0.95026      0.79259  1.0000
  O1          0.02370      0.36271      0.12717  1.0000
  O1          0.32266      0.33270      0.35415  1.0000
  O1          0.01510      0.65079      0.02191  1.0000
  O1          0.64438      0.96175      0.68718  1.0000
  O1          0.66740      0.63744      0.85321  1.0000
  O1          0.97545      0.31911      0.51933  1.0000
  O1          0.34364      0.01704      0.19920  1.0000
  O1          0.76394      0.30779      0.00115  1.0000
  O1          0.66100      0.42832      0.33281  1.0000
  O1          0.54786      0.21173      0.66774  1.0000
  O1          0.22657      0.66236      0.50254  1.0000
  O1          0.32257      0.54207      0.83334  1.0000
  O1          0.45227      0.73577      0.17514  1.0000
  O1          0.28683      0.74562      0.32361  1.0000
  O1          0.46935      0.72324      0.98039  1.0000
  O1          0.25568      0.50450      0.64902  1.0000
  O1          0.73383      0.24676      0.81495  1.0000
  O1          0.51938      0.24534      0.48013  1.0000
  O1          0.72977      0.45386      0.14898  1.0000
  O1          0.75505      0.53454      0.02730  1.0000
  O1          0.43937      0.19090      0.36310  1.0000
  O1          0.78471      0.22113      0.69273  1.0000
  O1          0.23595      0.43535      0.52607  1.0000
  O1          0.54807      0.77787      0.86016  1.0000
  O1          0.22314      0.75549      0.18236  1.0000
  O1          0.50579      0.73600      0.29608  1.0000
  O1          0.26362      0.47282      0.97403  1.0000
  O1          0.21343      0.71239      0.64276  1.0000
  O1          0.48311      0.20493      0.80813  1.0000
  O1          0.72660      0.49601      0.47372  1.0000
  O1          0.76683      0.24386      0.14062  1.0000
  O1          0.22366      0.34324      0.89261  1.0000
  O1          0.65620      0.90098      0.22900  1.0000
  O1          0.12423      0.75792      0.56240  1.0000
  O1          0.76541      0.62643      0.39260  1.0000
  O1          0.34978      0.11106      0.72768  1.0000
  O1          0.86628      0.20936      0.06067  1.0000
  O1          0.29896      0.20349      0.43411  1.0000
  O1          0.90177      0.67163      0.10098  1.0000
  O1          0.77673      0.07450      0.76586  1.0000
  O1          0.68767      0.76758      0.93266  1.0000
  O1          0.08669      0.29242      0.59819  1.0000
  O1          0.17930      0.83824      0.26180  1.0000
  O1          0.55826      0.56308      0.99189  1.0000
  O1          0.39027      0.00146      0.31040  1.0000
  O1          0.00753      0.41473      0.65915  1.0000
  O1          0.43277      0.40646      0.49335  1.0000
  O1          0.57431      0.00069      0.82638  1.0000
  O1          0.98087      0.54693      0.16052  1.0000
  O1          0.54139      0.56904      0.34760  1.0000
  O1          0.02723      0.43047      0.01280  1.0000
  O1          0.41090      0.94959      0.67969  1.0000
  O1          0.44663      0.40406      0.84496  1.0000
  O1          0.96108      0.53805      0.51467  1.0000
  O1          0.54365      0.99065      0.16811  1.0000
  O1          0.57026      0.12438      0.24640  1.0000
  O1          0.85090      0.36477      0.58591  1.0000
  O1          0.61401      0.46274      0.91845  1.0000
  O1          0.47032      0.84359      0.75334  1.0000
  O1          0.13633      0.59309      0.08652  1.0000
  O1          0.37251      0.50534      0.42040  1.0000
  F           0.39837      0.83812      0.23857  1.0000
  F           0.13620      0.53229      0.57278  1.0000
  F           0.44727      0.57850      0.90483  1.0000
  F           0.58685      0.12427      0.73881  1.0000
  F           0.85231      0.43219      0.07288  1.0000
  F           0.54329      0.39409      0.40591  1.0000
