data_cif

_audit_creation_method             'generated by GULP'

_symmetry_space_group_name_H-M     'P 1'
_symmetry_Int_Tables_number        1
_symmetry_cell_setting             triclinic

_cell_length_a                       12.5603
_cell_length_b                       12.5642
_cell_length_c                       30.5672
_cell_angle_alpha                   90.1210
_cell_angle_beta                    89.8088
_cell_angle_gamma                  119.9735

loop_
_atom_site_label
_atom_site_fract_x
_atom_site_fract_y
_atom_site_fract_z
_atom_site_occupancy
  Ge          0.69960      0.37570      0.03389  1.0000
  Ge          0.60324      0.30318      0.36640  1.0000
  Ge          0.67174      0.27298      0.70030  1.0000
  Ge          0.28699      0.59675      0.53458  1.0000
  Ge          0.37449      0.66541      0.86862  1.0000
  Ge          0.30803      0.68565      0.20156  1.0000
  Ge          0.34894      0.66423      0.30065  1.0000
  Ge          0.31144      0.62414      0.96784  1.0000
  Ge          0.30947      0.66525      0.63311  1.0000
  Ge          0.62784      0.30316      0.79822  1.0000
  Ge          0.67414      0.34280      0.46485  1.0000
  Ge          0.66875      0.30259      0.13198  1.0000
  Ge          0.52868      0.41874      0.96866  1.0000
  Ge          0.55315      0.08647      0.30198  1.0000
  Ge          0.88559      0.44313      0.63278  1.0000
  Ge          0.45362      0.54740      0.46989  1.0000
  Ge          0.42133      0.87990      0.80371  1.0000
  Ge          0.09259      0.52021      0.13675  1.0000
  Ge          0.39923      0.49365      0.36472  1.0000
  Ge          0.09189      0.57740      0.03234  1.0000
  Ge          0.48074      0.88126      0.69956  1.0000
  Ge          0.57696      0.47103      0.86369  1.0000
  Ge          0.89466      0.39460      0.52832  1.0000
  Ge          0.50206      0.08268      0.19718  1.0000
  Ge          0.29021      0.39334      0.84853  1.0000
  Ge          0.58021      0.87383      0.18134  1.0000
  Ge          0.09882      0.67782      0.51188  1.0000
  Ge          0.68708      0.57470      0.34637  1.0000
  Ge          0.39895      0.08582      0.68101  1.0000
  Ge          0.88639      0.29043      0.01310  1.0000
  Ge          0.39207      0.26375      0.47987  1.0000
  Ge          0.87016      0.58084      0.14836  1.0000
  Ge          0.70245      0.10101      0.81567  1.0000
  Ge          0.59186      0.70196      0.98030  1.0000
  Ge          0.10691      0.37811      0.64393  1.0000
  Ge          0.26958      0.86626      0.31352  1.0000
  Ge          0.24570      0.34094      0.95193  1.0000
  Ge          0.63185      0.88124      0.28455  1.0000
  Ge          0.09165      0.72859      0.61582  1.0000
  Ge          0.73819      0.62618      0.44987  1.0000
  Ge          0.34626      0.08511      0.78367  1.0000
  Ge          0.88789      0.23943      0.11628  1.0000
  Ge          0.32273      0.21078      0.37671  1.0000
  Ge          0.88718      0.65536      0.04593  1.0000
  Ge          0.76313      0.08495      0.71388  1.0000
  Ge          0.65326      0.75244      0.87694  1.0000
  Ge          0.10202      0.31690      0.54221  1.0000
  Ge          0.22069      0.87714      0.21001  1.0000
  Ge          0.97029      0.11818      0.96327  1.0000
  Ge          0.85662      0.83114      0.29748  1.0000
  Ge          0.14562      0.00783      0.62903  1.0000
  Ge          0.01742      0.85078      0.46294  1.0000
  Ge          0.12606      0.14292      0.79466  1.0000
  Ge          0.83153      0.96169      0.12785  1.0000
  Si          0.09639      0.93960      0.36230  1.0000
  Si          0.83870      0.87933      0.02801  1.0000
  Si          0.03679      0.13443      0.69492  1.0000
  Ge          0.88319      0.02937      0.86130  1.0000
  Si          0.14562      0.09062      0.52782  1.0000
  Ge          0.94521      0.83349      0.19501  1.0000
  O3          0.90999      0.98117      0.99117  1.0000
  O3          0.98665      0.90712      0.32895  1.0000
  O3          0.06157      0.05752      0.65832  1.0000
  O3          0.06872      0.98008      0.49458  1.0000
  O1          0.98852      0.06115      0.82057  1.0000
  O1          0.91415      0.91093      0.15592  1.0000
  O1          0.31635      0.54419      0.33524  1.0000
  O1          0.42756      0.74845      0.66897  1.0000
  O1          0.22523      0.65882      0.00242  1.0000
  O1          0.66006      0.42445      0.83213  1.0000
  O1          0.54858      0.21297      0.16620  1.0000
  O1          0.76430      0.30883      0.49739  1.0000
  O1          0.57016      0.33724      0.99984  1.0000
  O1          0.76164      0.39861      0.66409  1.0000
  O1          0.63952      0.20975      0.33257  1.0000
  O1          0.41868      0.63368      0.50163  1.0000
  O1          0.21449      0.55552      0.16801  1.0000
  O1          0.33631      0.75788      0.83520  1.0000
  O1          0.12153      0.21480      0.97620  1.0000
  O1          0.75766      0.88406      0.30905  1.0000
  O1          0.08562      0.85325      0.63738  1.0000
  O1          0.86498      0.75202      0.47299  1.0000
  O1          0.22104      0.08657      0.80727  1.0000
  O1          0.88591      0.11316      0.13980  1.0000
  O3          0.19037      0.08414      0.35686  1.0000
  O3          0.89611      0.79042      0.02731  1.0000
  O3          0.89031      0.07622      0.69619  1.0000
  O1          0.78681      0.87442      0.85720  1.0000
  O3          0.09492      0.18445      0.52149  1.0000
  O1          0.09926      0.88788      0.18947  1.0000
  O1          0.90587      0.86765      0.24455  1.0000
  O3          0.12069      0.03079      0.57540  1.0000
  O1          0.96215      0.07613      0.90950  1.0000
  O3          0.09300      0.11895      0.73952  1.0000
  O3          0.85989      0.95078      0.07326  1.0000
  O3          0.03693      0.90451      0.41007  1.0000
  O1          0.89293      0.19575      0.97297  1.0000
  O1          0.78060      0.67601      0.30618  1.0000
  O1          0.29832      0.08071      0.64090  1.0000
  O1          0.09658      0.77523      0.47224  1.0000
  O1          0.19575      0.29512      0.80798  1.0000
  O1          0.67881      0.87848      0.14053  1.0000
  O3          0.16869      0.86635      0.35313  1.0000
  O3          0.69301      0.79941      0.02019  1.0000
  O3          0.10266      0.27890      0.68478  1.0000
  O1          0.79826      0.10124      0.85628  1.0000
  O3          0.29146      0.16230      0.51934  1.0000
  O1          0.86932      0.67702      0.18888  1.0000
  O1          0.30883      0.60689      0.24843  1.0000
  O1          0.36782      0.65254      0.58384  1.0000
  O1          0.29449      0.66404      0.91562  1.0000
  O1          0.66842      0.35659      0.74555  1.0000
  O1          0.61586      0.29059      0.07956  1.0000
  O1          0.68450      0.30078      0.41233  1.0000
  O1          0.37127      0.32578      0.95935  1.0000
  O1          0.64510      0.02100      0.29187  1.0000
  O1          0.98095      0.60022      0.64127  1.0000
  O1          0.61200      0.63764      0.46047  1.0000
  O1          0.32876      0.94388      0.79236  1.0000
  O1          0.02815      0.36369      0.12546  1.0000
  O1          0.32565      0.33773      0.35452  1.0000
  O1          0.00924      0.65066      0.02224  1.0000
  O1          0.63632      0.96593      0.68875  1.0000
  O1          0.64554      0.62559      0.85260  1.0000
  O1          0.96049      0.30251      0.53229  1.0000
  O1          0.34779      0.99611      0.18582  1.0000
  O1          0.76249      0.30628      0.00107  1.0000
  O1          0.67510      0.43644      0.33438  1.0000
  O1          0.53977      0.20709      0.66766  1.0000
  O1          0.24105      0.69132      0.50857  1.0000
  O1          0.30374      0.53231      0.83663  1.0000
  O1          0.44133      0.74815      0.16948  1.0000
  O1          0.25589      0.72350      0.31627  1.0000
  O1          0.46378      0.71727      0.98314  1.0000
  O1          0.22194      0.52218      0.65772  1.0000
  O1          0.72114      0.24570      0.81494  1.0000
  O1          0.52255      0.25270      0.48209  1.0000
  O1          0.72653      0.45351      0.14876  1.0000
  O1          0.75194      0.53473      0.02773  1.0000
  O1          0.44456      0.19850      0.35824  1.0000
  O1          0.77899      0.22196      0.69760  1.0000
  O1          0.22040      0.44092      0.51704  1.0000
  O1          0.53286      0.77070      0.86077  1.0000
  O1          0.20275      0.73857      0.19383  1.0000
  O1          0.50327      0.76538      0.30919  1.0000
  O1          0.25901      0.46986      0.97652  1.0000
  O1          0.23330      0.74712      0.62737  1.0000
  O1          0.47394      0.20253      0.80795  1.0000
  O1          0.73120      0.49835      0.47317  1.0000
  O1          0.77057      0.25038      0.14057  1.0000
  O1          0.21100      0.33384      0.89698  1.0000
  O1          0.63996      0.85366      0.22952  1.0000
  O1          0.06959      0.73037      0.56021  1.0000
  O1          0.76692      0.63592      0.39441  1.0000
  O1          0.34008      0.11058      0.72856  1.0000
  O1          0.86484      0.20941      0.06101  1.0000
  O1          0.30803      0.20520      0.43282  1.0000
  O1          0.89970      0.67017      0.10206  1.0000
  O1          0.76034      0.06671      0.76978  1.0000
  O1          0.67468      0.75908      0.93292  1.0000
  O1          0.13492      0.31963      0.59720  1.0000
  O1          0.21264      0.89119      0.26605  1.0000
  O1          0.54876      0.55338      0.99202  1.0000
  O1          0.41771      0.97288      0.32551  1.0000
  O1          0.96710      0.36817      0.64219  1.0000
  O1          0.43021      0.41066      0.49264  1.0000
  O1          0.55315      0.99708      0.82760  1.0000
  O1          0.97618      0.53804      0.15998  1.0000
  O1          0.54751      0.56999      0.34456  1.0000
  O1          0.02203      0.42925      0.01209  1.0000
  O1          0.39834      0.94852      0.68124  1.0000
  O1          0.42644      0.39171      0.84619  1.0000
  O1          0.98700      0.52892      0.49994  1.0000
  O1          0.58181      0.01173      0.17952  1.0000
  O1          0.52059      0.12436      0.25114  1.0000
  O1          0.84856      0.42299      0.57748  1.0000
  O1          0.59874      0.45059      0.91759  1.0000
  O1          0.45867      0.84090      0.75370  1.0000
  O1          0.13131      0.59413      0.08647  1.0000
  O1          0.38452      0.51790      0.41890  1.0000
  F           0.40153      0.84096      0.23926  1.0000
  F           0.13402      0.53542      0.57138  1.0000
  F           0.43637      0.57164      0.90610  1.0000
  F           0.57393      0.12102      0.74005  1.0000
  F           0.85019      0.43326      0.07224  1.0000
  F           0.54496      0.39569      0.40494  1.0000
