data_cif

_audit_creation_method             'generated by GULP'

_symmetry_space_group_name_H-M     'P 1'
_symmetry_Int_Tables_number        1
_symmetry_cell_setting             triclinic

_cell_length_a                       12.5485
_cell_length_b                       12.5557
_cell_length_c                       30.5521
_cell_angle_alpha                   89.9849
_cell_angle_beta                    89.9556
_cell_angle_gamma                  119.8807

loop_
_atom_site_label
_atom_site_fract_x
_atom_site_fract_y
_atom_site_fract_z
_atom_site_occupancy
  Ge          0.69960      0.37570      0.03389  1.0000
  Ge          0.60502      0.29624      0.36746  1.0000
  Ge          0.68251      0.27877      0.70046  1.0000
  Ge          0.28429      0.59226      0.53110  1.0000
  Ge          0.38798      0.66691      0.86355  1.0000
  Ge          0.31549      0.69443      0.19731  1.0000
  Ge          0.34859      0.65613      0.29557  1.0000
  Ge          0.31628      0.63260      0.96208  1.0000
  Ge          0.32108      0.66220      0.62942  1.0000
  Ge          0.63565      0.30089      0.79878  1.0000
  Ge          0.67452      0.34398      0.46569  1.0000
  Ge          0.67742      0.30558      0.13212  1.0000
  Ge          0.53874      0.43071      0.96936  1.0000
  Ge          0.54967      0.08023      0.30332  1.0000
  Ge          0.90001      0.44213      0.63681  1.0000
  Ge          0.45229      0.54405      0.46509  1.0000
  Ge          0.43601      0.88296      0.79896  1.0000
  Ge          0.09944      0.52621      0.13150  1.0000
  Ge          0.39834      0.48773      0.36012  1.0000
  Ge          0.09751      0.58120      0.02665  1.0000
  Ge          0.49190      0.88087      0.69422  1.0000
  Ge          0.59226      0.47361      0.86480  1.0000
  Ge          0.88948      0.38863      0.53269  1.0000
  Ge          0.50700      0.09032      0.19903  1.0000
  Ge          0.30571      0.39445      0.84610  1.0000
  Ge          0.58859      0.88529      0.18050  1.0000
  Ge          0.09359      0.67454      0.51385  1.0000
  Ge          0.68053      0.56237      0.34272  1.0000
  Ge          0.41535      0.09081      0.67672  1.0000
  Ge          0.89029      0.29968      0.00920  1.0000
  Ge          0.38630      0.25604      0.47700  1.0000
  Ge          0.87770      0.59314      0.14367  1.0000
  Ge          0.72027      0.10142      0.81144  1.0000
  Ge          0.59870      0.71440      0.97742  1.0000
  Ge          0.12224      0.38084      0.64462  1.0000
  Ge          0.26733      0.85693      0.31158  1.0000
  Ge          0.25391      0.35118      0.94889  1.0000
  Ge          0.62907      0.87488      0.28285  1.0000
  Ge          0.10273      0.72506      0.61618  1.0000
  Ge          0.73819      0.62422      0.44624  1.0000
  Ge          0.35451      0.08654      0.77943  1.0000
  Ge          0.89385      0.24109      0.11272  1.0000
  Ge          0.32495      0.20499      0.37444  1.0000
  Ge          0.88832      0.65518      0.04112  1.0000
  Ge          0.77283      0.08792      0.70818  1.0000
  Ge          0.66799      0.75667      0.87387  1.0000
  Ge          0.09635      0.31232      0.54150  1.0000
  Ge          0.22398      0.88345      0.20843  1.0000
  Ge          0.97552      0.12599      0.96568  1.0000
  Ge          0.85379      0.82128      0.29959  1.0000
  Ge          0.15692      0.00316      0.63232  1.0000
  Si          0.01253      0.84430      0.46549  1.0000
  Si          0.13628      0.14305      0.79898  1.0000
  Si          0.83908      0.96621      0.13193  1.0000
  Ge          0.09612      0.93100      0.36564  1.0000
  Ge          0.84348      0.88454      0.03184  1.0000
  Ge          0.04955      0.13590      0.69897  1.0000
  Ge          0.89864      0.03010      0.86332  1.0000
  Ge          0.13731      0.08051      0.53001  1.0000
  Ge          0.95054      0.84166      0.19699  1.0000
  O1          0.93537      0.02301      0.00796  1.0000
  O1          0.95779      0.88353      0.34148  1.0000
  O1          0.09526      0.04320      0.67519  1.0000
  O3          0.04533      0.94197      0.50437  1.0000
  O3          0.03845      0.08081      0.83805  1.0000
  O3          0.90458      0.93348      0.17062  1.0000
  O1          0.31288      0.53166      0.32862  1.0000
  O1          0.44349      0.74991      0.66330  1.0000
  O1          0.22697      0.66724      0.99534  1.0000
  O1          0.67086      0.41861      0.83492  1.0000
  O1          0.56094      0.22328      0.16882  1.0000
  O1          0.75631      0.30987      0.50263  1.0000
  O1          0.56753      0.34171      0.00213  1.0000
  O1          0.78064      0.41143      0.66907  1.0000
  O1          0.63936      0.19821      0.33577  1.0000
  O1          0.41087      0.62796      0.49534  1.0000
  O1          0.22504      0.56821      0.16156  1.0000
  O1          0.35060      0.75909      0.82969  1.0000
  O1          0.13005      0.22367      0.97167  1.0000
  O1          0.75643      0.87840      0.30606  1.0000
  O1          0.09769      0.84862      0.63875  1.0000
  O3          0.86573      0.75865      0.46505  1.0000
  O3          0.22227      0.08214      0.79998  1.0000
  O3          0.89997      0.11299      0.13156  1.0000
  O1          0.19506      0.08138      0.35259  1.0000
  O1          0.89473      0.78505      0.01900  1.0000
  O1          0.89841      0.08396      0.68695  1.0000
  O1          0.80039      0.87832      0.85208  1.0000
  O1          0.08393      0.17958      0.51933  1.0000
  O1          0.10326      0.89557      0.18655  1.0000
  O1          0.93445      0.86245      0.25160  1.0000
  O1          0.11658      0.04520      0.58487  1.0000
  O1          0.93450      0.04413      0.91813  1.0000
  O3          0.05987      0.11953      0.75492  1.0000
  O3          0.86098      0.91283      0.08757  1.0000
  O3          0.06640      0.92043      0.42132  1.0000
  O1          0.89997      0.20820      0.96903  1.0000
  O1          0.77230      0.66379      0.30266  1.0000
  O1          0.31413      0.07749      0.63586  1.0000
  O3          0.07593      0.76194      0.47318  1.0000
  O3          0.21872      0.28905      0.80567  1.0000
  O3          0.69354      0.90266      0.13981  1.0000
  O1          0.16290      0.84618      0.35120  1.0000
  O1          0.69251      0.81860      0.01690  1.0000
  O1          0.13321      0.28676      0.68398  1.0000
  O1          0.82326      0.10821      0.85098  1.0000
  O1          0.28976      0.15348      0.51684  1.0000
  O1          0.87209      0.68936      0.18370  1.0000
  O1          0.31397      0.60736      0.24229  1.0000
  O1          0.37067      0.67861      0.57609  1.0000
  O1          0.30330      0.66838      0.90901  1.0000
  O1          0.67590      0.35786      0.74663  1.0000
  O1          0.61818      0.31632      0.08288  1.0000
  O1          0.66442      0.27423      0.41646  1.0000
  O1          0.38178      0.34136      0.95782  1.0000
  O1          0.63947      0.01272      0.29161  1.0000
  O1          0.96399      0.59814      0.62468  1.0000
  O1          0.61081      0.60830      0.47195  1.0000
  O1          0.34325      0.94809      0.78917  1.0000
  O1          0.00557      0.36785      0.13843  1.0000
  O1          0.30759      0.33018      0.36454  1.0000
  O1          0.03077      0.67221      0.03130  1.0000
  O1          0.64764      0.96614      0.68427  1.0000
  O1          0.66307      0.62791      0.85246  1.0000
  O1          0.97605      0.32202      0.51875  1.0000
  O1          0.35359      0.00426      0.18585  1.0000
  O1          0.74730      0.28435      0.00621  1.0000
  O1          0.69646      0.43508      0.33980  1.0000
  O1          0.55361      0.21761      0.66589  1.0000
  O1          0.21464      0.65624      0.49874  1.0000
  O1          0.32099      0.53279      0.83169  1.0000
  O1          0.44958      0.76427      0.16540  1.0000
  O1          0.25493      0.71449      0.31133  1.0000
  O1          0.46795      0.72564      0.97790  1.0000
  O1          0.26515      0.51005      0.64414  1.0000
  O1          0.73028      0.24260      0.81328  1.0000
  O1          0.53087      0.28436      0.48981  1.0000
  O1          0.76114      0.44877      0.15637  1.0000
  O1          0.76752      0.53171      0.01674  1.0000
  O1          0.44895      0.20785      0.35015  1.0000
  O1          0.78867      0.22578      0.69265  1.0000
  O1          0.23336      0.43435      0.52579  1.0000
  O1          0.54687      0.77113      0.85588  1.0000
  O1          0.20987      0.74700      0.19222  1.0000
  O1          0.50253      0.75398      0.30686  1.0000
  O1          0.26078      0.47834      0.97287  1.0000
  O1          0.22030      0.71486      0.64068  1.0000
  O1          0.48005      0.20093      0.80585  1.0000
  O1          0.75652      0.50203      0.45965  1.0000
  O1          0.75362      0.22341      0.12627  1.0000
  O1          0.22110      0.34197      0.89370  1.0000
  O1          0.64032      0.85058      0.22776  1.0000
  O1          0.12896      0.76089      0.56115  1.0000
  O1          0.73673      0.64509      0.39071  1.0000
  O1          0.35237      0.11173      0.72431  1.0000
  O1          0.91629      0.24279      0.05718  1.0000
  O1          0.32432      0.17415      0.42971  1.0000
  O1          0.85797      0.65562      0.09640  1.0000
  O1          0.77637      0.07203      0.76437  1.0000
  O1          0.68472      0.76847      0.93023  1.0000
  O1          0.08648      0.29297      0.59778  1.0000
  O1          0.21426      0.89180      0.26473  1.0000
  O1          0.56211      0.56827      0.99146  1.0000
  O1          0.41327      0.96552      0.32596  1.0000
  O1          0.01607      0.42179      0.65904  1.0000
  O1          0.38104      0.38889      0.47748  1.0000
  O1          0.57130      0.99456      0.82300  1.0000
  O1          0.01548      0.59753      0.14413  1.0000
  O1          0.53144      0.52581      0.33164  1.0000
  O1          0.00290      0.44855      0.99811  1.0000
  O1          0.41579      0.95385      0.67530  1.0000
  O1          0.44244      0.39379      0.84697  1.0000
  O1          0.95521      0.54002      0.51690  1.0000
  O1          0.59164      0.02349      0.18302  1.0000
  O1          0.51968      0.12627      0.25347  1.0000
  O1          0.85468      0.36429      0.58721  1.0000
  O1          0.61304      0.45847      0.91924  1.0000
  O1          0.46863      0.84235      0.74846  1.0000
  O1          0.13906      0.55169      0.07635  1.0000
  O1          0.42675      0.55806      0.40991  1.0000
  F           0.40803      0.84259      0.23859  1.0000
  F           0.13606      0.53570      0.57157  1.0000
  F           0.44632      0.57669      0.90364  1.0000
  F           0.58801      0.12492      0.73655  1.0000
  F           0.85221      0.43574      0.07062  1.0000
  F           0.54399      0.38796      0.40402  1.0000
