data_cif

_audit_creation_method             'generated by GULP'

_symmetry_space_group_name_H-M     'P 1'
_symmetry_Int_Tables_number        1
_symmetry_cell_setting             triclinic

_cell_length_a                       12.6333
_cell_length_b                       12.6171
_cell_length_c                       30.9148
_cell_angle_alpha                   90.1025
_cell_angle_beta                    90.0090
_cell_angle_gamma                  120.0108

loop_
_atom_site_label
_atom_site_fract_x
_atom_site_fract_y
_atom_site_fract_z
_atom_site_occupancy
  Ge          0.69960      0.37570      0.03389  1.0000
  Ge          0.62237      0.32331      0.36745  1.0000
  Ge          0.67667      0.29672      0.70008  1.0000
  Ge          0.29887      0.62366      0.53278  1.0000
  Ge          0.37535      0.67786      0.86668  1.0000
  Ge          0.32680      0.70198      0.19927  1.0000
  Ge          0.37655      0.69839      0.30043  1.0000
  Ge          0.32281      0.62535      0.96737  1.0000
  Ge          0.29886      0.67311      0.63429  1.0000
  Ge          0.62106      0.29936      0.80026  1.0000
  Ge          0.67752      0.37906      0.46744  1.0000
  Ge          0.70266      0.32225      0.13430  1.0000
  Ge          0.52965      0.41844      0.96886  1.0000
  Ge          0.58294      0.11227      0.30212  1.0000
  Ge          0.88902      0.46747      0.63522  1.0000
  Ge          0.47430      0.58521      0.46902  1.0000
  Ge          0.41519      0.88776      0.80102  1.0000
  Ge          0.11210      0.52791      0.13531  1.0000
  Ge          0.41733      0.52843      0.36584  1.0000
  Ge          0.11202      0.58510      0.03253  1.0000
  Ge          0.47273      0.88792      0.69822  1.0000
  Ge          0.58140      0.47054      0.86583  1.0000
  Ge          0.88879      0.41707      0.53225  1.0000
  Ge          0.53114      0.11110      0.19932  1.0000
  Ge          0.29831      0.39944      0.85143  1.0000
  Ge          0.60599      0.90209      0.18513  1.0000
  Ge          0.09805      0.70200      0.51912  1.0000
  Ge          0.70012      0.60068      0.35063  1.0000
  Ge          0.39907      0.09777      0.68337  1.0000
  Ge          0.90206      0.30193      0.01731  1.0000
  Ge          0.39985      0.30042      0.48407  1.0000
  Ge          0.90210      0.60147      0.15010  1.0000
  Ge          0.69831      0.09830      0.81661  1.0000
  Ge          0.60073      0.70233      0.98304  1.0000
  Ge          0.09903      0.39306      0.64765  1.0000
  Ge          0.29910      0.89997      0.31533  1.0000
  Ge          0.24951      0.34292      0.95316  1.0000
  Ge          0.65855      0.90753      0.28714  1.0000
  Ge          0.09189      0.74976      0.62133  1.0000
  Ge          0.75554      0.66297      0.45235  1.0000
  Ge          0.33934      0.09144      0.78474  1.0000
  Ge          0.90955      0.24600      0.11875  1.0000
  Ge          0.34125      0.24864      0.38239  1.0000
  Ge          0.90726      0.65905      0.04859  1.0000
  Ge          0.75446      0.09071      0.71501  1.0000
  Ge          0.65714      0.75102      0.88126  1.0000
  Ge          0.09266      0.33994      0.54545  1.0000
  Ge          0.24960      0.90869      0.21347  1.0000
  Ge          0.97110      0.12273      0.96800  1.0000
  Ge          0.87878      0.84904      0.30149  1.0000
  Ge          0.14829      0.02899      0.63497  1.0000
  Si          0.03069      0.87691      0.46845  1.0000
  Ge          0.12043      0.15384      0.79879  1.0000
  Si          0.84966      0.97099      0.13518  1.0000
  Ge          0.12196      0.96720      0.36860  1.0000
  Ge          0.84657      0.87927      0.03530  1.0000
  Si          0.02907      0.15029      0.69873  1.0000
  Ge          0.87740      0.02945      0.86611  1.0000
  Ge          0.14956      0.11813      0.53250  1.0000
  Ge          0.97094      0.85210      0.19923  1.0000
  O1          0.92757      0.00412      0.00329  1.0000
  O1          0.99658      0.92472      0.33710  1.0000
  O3          0.06742      0.07249      0.66833  1.0000
  O3          0.07112      0.99168      0.49982  1.0000
  O1          0.99626      0.07248      0.83107  1.0000
  O3          0.92456      0.93282      0.16716  1.0000
  O1          0.33698      0.57378      0.33352  1.0000
  O1          0.42534      0.76035      0.66654  1.0000
  O1          0.23808      0.66521      0.00049  1.0000
  O1          0.66048      0.42421      0.83337  1.0000
  O1          0.57828      0.23719      0.16713  1.0000
  O1          0.76284      0.33900      0.50009  1.0000
  O1          0.57474      0.33804      0.00111  1.0000
  O1          0.76396      0.42187      0.66756  1.0000
  O1          0.66189      0.23736      0.33459  1.0000
  O1          0.42594      0.66429      0.50062  1.0000
  O1          0.23946      0.57563      0.16686  1.0000
  O1          0.33558      0.76209      0.83327  1.0000
  O1          0.12501      0.21741      0.97557  1.0000
  O1          0.78350      0.90738      0.30946  1.0000
  O1          0.09145      0.87541      0.64352  1.0000
  O3          0.88521      0.78917      0.47370  1.0000
  O1          0.21320      0.09251      0.80587  1.0000
  O3          0.90636      0.11658      0.14009  1.0000
  O1          0.21489      0.12125      0.36129  1.0000
  O1          0.90603      0.78517      0.02732  1.0000
  O3          0.88379      0.09449      0.69343  1.0000
  O1          0.78225      0.87545      0.85865  1.0000
  O1          0.09264      0.21415      0.52297  1.0000
  O1          0.12450      0.90940      0.19094  1.0000
  O1          0.94265      0.87858      0.25105  1.0000
  O1          0.12057      0.06091      0.58390  1.0000
  O1          0.93860      0.06148      0.91704  1.0000
  O3          0.06409      0.13485      0.74702  1.0000
  O3          0.86803      0.93386      0.08753  1.0000
  O3          0.06736      0.92994      0.42058  1.0000
  O1          0.89960      0.20560      0.97668  1.0000
  O1          0.79627      0.69436      0.31015  1.0000
  O1          0.30237      0.10081      0.64386  1.0000
  O3          0.09761      0.80063      0.47949  1.0000
  O1          0.20111      0.30610      0.81088  1.0000
  O3          0.70619      0.90280      0.14576  1.0000
  O1          0.20190      0.89533      0.35585  1.0000
  O1          0.69412      0.79973      0.02354  1.0000
  O3          0.09891      0.29311      0.68693  1.0000
  O1          0.79482      0.10129      0.85712  1.0000
  O1          0.30376      0.20127      0.52368  1.0000
  O1          0.89880      0.69816      0.18963  1.0000
  O1          0.32582      0.64144      0.24932  1.0000
  O1          0.35718      0.67838      0.58348  1.0000
  O1          0.31893      0.68144      0.91701  1.0000
  O1          0.67897      0.35822      0.75006  1.0000
  O1          0.64141      0.31749      0.08403  1.0000
  O1          0.67979      0.31979      0.41752  1.0000
  O1          0.37259      0.33267      0.97033  1.0000
  O1          0.67032      0.04244      0.30326  1.0000
  O1          0.95853      0.62485      0.63735  1.0000
  O1          0.63204      0.67142      0.47065  1.0000
  O1          0.32872      0.95846      0.80277  1.0000
  O1          0.04240      0.36999      0.13633  1.0000
  O1          0.33024      0.37113      0.36475  1.0000
  O1          0.04034      0.67055      0.03027  1.0000
  O1          0.63049      0.95826      0.69705  1.0000
  O1          0.66723      0.62768      0.86401  1.0000
  O1          0.95930      0.33046      0.52884  1.0000
  O1          0.37419      0.04049      0.19601  1.0000
  O1          0.76699      0.30047      0.01057  1.0000
  O1          0.70100      0.46658      0.34445  1.0000
  O1          0.53395      0.23180      0.67659  1.0000
  O1          0.23177      0.70121      0.51073  1.0000
  O1          0.29823      0.53368      0.84431  1.0000
  O1          0.47026      0.76980      0.17614  1.0000
  O1          0.29642      0.76384      0.32122  1.0000
  O1          0.46677      0.70295      0.98975  1.0000
  O1          0.23308      0.52772      0.65581  1.0000
  O1          0.69811      0.23273      0.82292  1.0000
  O1          0.53490      0.30215      0.49095  1.0000
  O1          0.76788      0.46666      0.15663  1.0000
  O1          0.77960      0.53335      0.02866  1.0000
  O1          0.46561      0.24649      0.36120  1.0000
  O1          0.75325      0.21621      0.69472  1.0000
  O1          0.21832      0.46712      0.52524  1.0000
  O1          0.53197      0.75310      0.86094  1.0000
  O1          0.24886      0.78110      0.19384  1.0000
  O1          0.53234      0.78264      0.30817  1.0000
  O1          0.24808      0.46866      0.97348  1.0000
  O1          0.21658      0.74711      0.64190  1.0000
  O1          0.46423      0.21877      0.80550  1.0000
  O1          0.75465      0.53642      0.47263  1.0000
  O1          0.78497      0.24768      0.13970  1.0000
  O1          0.22608      0.32329      0.89810  1.0000
  O1          0.67655      0.89954      0.23226  1.0000
  O1          0.09870      0.77408      0.56639  1.0000
  O1          0.77150      0.67936      0.39725  1.0000
  O1          0.32091      0.09234      0.72968  1.0000
  O1          0.90724      0.22853      0.06363  1.0000
  O1          0.32315      0.22816      0.43742  1.0000
  O1          0.90839      0.67920      0.10366  1.0000
  O1          0.77064      0.09195      0.77015  1.0000
  O1          0.67701      0.77425      0.93631  1.0000
  O1          0.09816      0.32097      0.60037  1.0000
  O1          0.22838      0.90683      0.26858  1.0000
  O1          0.58535      0.56147      0.99167  1.0000
  O1          0.44030      0.02361      0.32488  1.0000
  O1          0.97529      0.40992      0.65746  1.0000
  O1          0.41846      0.44297      0.49243  1.0000
  O1          0.55673      0.97423      0.82487  1.0000
  O1          0.02514      0.58240      0.15928  1.0000
  O1          0.55825      0.58237      0.34185  1.0000
  O1          0.02651      0.44301      0.00875  1.0000
  O1          0.41721      0.97389      0.67419  1.0000
  O1          0.43866      0.41395      0.84291  1.0000
  O1          0.97339      0.56133      0.51015  1.0000
  O1          0.59183      0.02804      0.17660  1.0000
  O1          0.58124      0.16403      0.25082  1.0000
  O1          0.83702      0.41463      0.58387  1.0000
  O1          0.58150      0.41911      0.91733  1.0000
  O1          0.41834      0.83727      0.74957  1.0000
  O1          0.16247      0.58298      0.08402  1.0000
  O1          0.42239      0.58283      0.41729  1.0000
  F           0.45008      0.89653      0.24925  1.0000
  F           0.10445      0.54946      0.58324  1.0000
  F           0.44594      0.55436      0.91701  1.0000
  F           0.54932      0.10471      0.74951  1.0000
  F           0.89556      0.44901      0.08328  1.0000
  F           0.55352      0.44384      0.41681  1.0000
