data_cif

_audit_creation_method             'generated by GULP'

_symmetry_space_group_name_H-M     'P 1'
_symmetry_Int_Tables_number        1
_symmetry_cell_setting             triclinic

_cell_length_a                       12.5571
_cell_length_b                       12.6038
_cell_length_c                       30.5727
_cell_angle_alpha                   89.9521
_cell_angle_beta                    90.1235
_cell_angle_gamma                  119.8951

loop_
_atom_site_label
_atom_site_fract_x
_atom_site_fract_y
_atom_site_fract_z
_atom_site_occupancy
  Ge          0.69960      0.37570      0.03389  1.0000
  Ge          0.59091      0.29582      0.36708  1.0000
  Ge          0.67228      0.26811      0.70093  1.0000
  Ge          0.28460      0.59129      0.53561  1.0000
  Ge          0.38156      0.66738      0.86765  1.0000
  Ge          0.30399      0.68848      0.20199  1.0000
  Ge          0.34378      0.66426      0.30119  1.0000
  Ge          0.31486      0.62555      0.96626  1.0000
  Ge          0.30821      0.65568      0.63452  1.0000
  Ge          0.63140      0.30105      0.79864  1.0000
  Ge          0.66698      0.33776      0.46505  1.0000
  Ge          0.66980      0.30570      0.13231  1.0000
  Ge          0.53677      0.42749      0.96847  1.0000
  Ge          0.54348      0.08138      0.30244  1.0000
  Ge          0.88685      0.43616      0.63498  1.0000
  Ge          0.44513      0.53836      0.47030  1.0000
  Ge          0.43165      0.88219      0.80348  1.0000
  Ge          0.08995      0.52470      0.13692  1.0000
  Ge          0.38501      0.48689      0.36570  1.0000
  Ge          0.09845      0.57994      0.03239  1.0000
  Ge          0.48306      0.87416      0.69940  1.0000
  Ge          0.58881      0.47506      0.86402  1.0000
  Ge          0.88585      0.38769      0.52997  1.0000
  Ge          0.49739      0.08768      0.19764  1.0000
  Ge          0.30282      0.39959      0.84604  1.0000
  Ge          0.57300      0.87747      0.18117  1.0000
  Ge          0.09380      0.66880      0.51366  1.0000
  Ge          0.67106      0.56415      0.34614  1.0000
  Ge          0.40332      0.07990      0.67963  1.0000
  Ge          0.88922      0.29581      0.01311  1.0000
  Ge          0.38423      0.25579      0.48050  1.0000
  Ge          0.86847      0.58768      0.14630  1.0000
  Ge          0.71376      0.10196      0.81377  1.0000
  Ge          0.59842      0.71004      0.97862  1.0000
  Ge          0.10778      0.36814      0.64438  1.0000
  Ge          0.25928      0.86400      0.31244  1.0000
  Ge          0.25242      0.34623      0.94853  1.0000
  Ge          0.62623      0.87902      0.28399  1.0000
  Ge          0.09166      0.72126      0.61762  1.0000
  Ge          0.72935      0.61771      0.44872  1.0000
  Ge          0.35160      0.08416      0.78175  1.0000
  Ge          0.88743      0.24219      0.11571  1.0000
  Ge          0.31002      0.20479      0.37752  1.0000
  Ge          0.89049      0.65412      0.04279  1.0000
  Ge          0.76533      0.08063      0.71137  1.0000
  Ge          0.66173      0.75556      0.87506  1.0000
  Ge          0.09510      0.31323      0.54158  1.0000
  Ge          0.21631      0.88011      0.20830  1.0000
  Ge          0.97405      0.12324      0.96689  1.0000
  Ge          0.85074      0.82340      0.30183  1.0000
  Ge          0.14399      0.00020      0.63422  1.0000
  Ge          0.01150      0.84128      0.46551  1.0000
  Ge          0.13086      0.14508      0.79811  1.0000
  Ge          0.82945      0.96250      0.13422  1.0000
  Si          0.08873      0.93557      0.36571  1.0000
  Ge          0.84562      0.88233      0.03249  1.0000
  Si          0.03399      0.12698      0.69854  1.0000
  Ge          0.88908      0.02896      0.86521  1.0000
  Ge          0.13635      0.08367      0.53187  1.0000
  Ge          0.94214      0.83405      0.19969  1.0000
  O1          0.93682      0.02248      0.00979  1.0000
  O3          0.95717      0.88923      0.34382  1.0000
  O3          0.07791      0.04102      0.67588  1.0000
  O1          0.04744      0.94804      0.50583  1.0000
  O1          0.02637      0.08008      0.83970  1.0000
  O1          0.89269      0.92561      0.17740  1.0000
  O1          0.30722      0.54364      0.33612  1.0000
  O1          0.42751      0.73952      0.67019  1.0000
  O1          0.23094      0.65953      0.00216  1.0000
  O1          0.66726      0.42172      0.83326  1.0000
  O1          0.54972      0.21938      0.16714  1.0000
  O1          0.75569      0.30386      0.49875  1.0000
  O1          0.56958      0.34041      0.00054  1.0000
  O1          0.76428      0.39575      0.66629  1.0000
  O1          0.62794      0.20219      0.33424  1.0000
  O1          0.41545      0.62659      0.50291  1.0000
  O1          0.20910      0.55701      0.16955  1.0000
  O1          0.34456      0.76246      0.83547  1.0000
  O1          0.12996      0.21569      0.97014  1.0000
  O1          0.75766      0.88642      0.30564  1.0000
  O1          0.08208      0.84457      0.63791  1.0000
  O1          0.85626      0.74708      0.46925  1.0000
  O1          0.22053      0.07924      0.80221  1.0000
  O1          0.89338      0.11799      0.13690  1.0000
  O3          0.17980      0.07829      0.35556  1.0000
  O1          0.89818      0.78393      0.02036  1.0000
  O3          0.89042      0.07485      0.68897  1.0000
  O1          0.79110      0.87839      0.85287  1.0000
  O1          0.08699      0.18422      0.51857  1.0000
  O1          0.09218      0.88525      0.18604  1.0000
  O1          0.93384      0.85199      0.25523  1.0000
  O1          0.11045      0.04690      0.58656  1.0000
  O1          0.92211      0.03853      0.92037  1.0000
  O3          0.04863      0.11744      0.75042  1.0000
  O1          0.86074      0.90767      0.08814  1.0000
  O3          0.06500      0.92162      0.41756  1.0000
  O1          0.90457      0.21010      0.97215  1.0000
  O1          0.76001      0.66790      0.30639  1.0000
  O1          0.29990      0.06655      0.63942  1.0000
  O1          0.08536      0.75971      0.47313  1.0000
  O1          0.21701      0.30006      0.80465  1.0000
  O1          0.67320      0.89257      0.13990  1.0000
  O3          0.15317      0.85878      0.35079  1.0000
  O1          0.69409      0.81406      0.01770  1.0000
  O3          0.11144      0.26736      0.68334  1.0000
  O1          0.81662      0.11022      0.85353  1.0000
  O1          0.28994      0.15296      0.52011  1.0000
  O1          0.85906      0.68254      0.18541  1.0000
  O1          0.30565      0.60910      0.24871  1.0000
  O1          0.36594      0.64623      0.58478  1.0000
  O1          0.29699      0.66303      0.91381  1.0000
  O1          0.66832      0.35254      0.74575  1.0000
  O1          0.61682      0.29071      0.07956  1.0000
  O1          0.67742      0.29763      0.41244  1.0000
  O1          0.38069      0.33608      0.95659  1.0000
  O1          0.63584      0.01673      0.29240  1.0000
  O1          0.98185      0.59282      0.64272  1.0000
  O1          0.60227      0.62773      0.45915  1.0000
  O1          0.33919      0.94588      0.79141  1.0000
  O1          0.02543      0.36901      0.12509  1.0000
  O1          0.31107      0.33121      0.35562  1.0000
  O1          0.01349      0.64958      0.02052  1.0000
  O1          0.63798      0.95966      0.68764  1.0000
  O1          0.65730      0.62904      0.85218  1.0000
  O1          0.95225      0.29652      0.53328  1.0000
  O1          0.34284      0.00216      0.18549  1.0000
  O1          0.76441      0.30963      0.00047  1.0000
  O1          0.65762      0.42620      0.33364  1.0000
  O1          0.54271      0.20190      0.66657  1.0000
  O1          0.23674      0.68424      0.50971  1.0000
  O1          0.31508      0.53736      0.83401  1.0000
  O1          0.43551      0.75140      0.16897  1.0000
  O1          0.24950      0.72320      0.31543  1.0000
  O1          0.46759      0.72085      0.98027  1.0000
  O1          0.22445      0.51152      0.65812  1.0000
  O1          0.72678      0.24401      0.81357  1.0000
  O1          0.51549      0.24595      0.48135  1.0000
  O1          0.72682      0.45725      0.14720  1.0000
  O1          0.75336      0.53386      0.02606  1.0000
  O1          0.43191      0.19221      0.35965  1.0000
  O1          0.77952      0.21717      0.69632  1.0000
  O1          0.21459      0.43709      0.51712  1.0000
  O1          0.54006      0.77200      0.85927  1.0000
  O1          0.20011      0.74277      0.19253  1.0000
  O1          0.49900      0.76376      0.30941  1.0000
  O1          0.26205      0.47152      0.97446  1.0000
  O1          0.23229      0.73817      0.63024  1.0000
  O1          0.47685      0.20130      0.80744  1.0000
  O1          0.72400      0.49268      0.47367  1.0000
  O1          0.77023      0.25140      0.14093  1.0000
  O1          0.21865      0.34045      0.89354  1.0000
  O1          0.63239      0.85305      0.22894  1.0000
  O1          0.07038      0.72534      0.56196  1.0000
  O1          0.75615      0.62376      0.39341  1.0000
  O1          0.34527      0.10857      0.72664  1.0000
  O1          0.86242      0.21101      0.06055  1.0000
  O1          0.29639      0.19959      0.43372  1.0000
  O1          0.90002      0.67264      0.09903  1.0000
  O1          0.76775      0.06587      0.76745  1.0000
  O1          0.68258      0.76401      0.93124  1.0000
  O1          0.13061      0.31182      0.59638  1.0000
  O1          0.20689      0.89190      0.26437  1.0000
  O1          0.55867      0.56294      0.99141  1.0000
  O1          0.40691      0.96968      0.32548  1.0000
  O1          0.96976      0.36247      0.64504  1.0000
  O1          0.42162      0.40221      0.49335  1.0000
  O1          0.56576      0.99743      0.82689  1.0000
  O1          0.97531      0.54656      0.15931  1.0000
  O1          0.53267      0.56188      0.34568  1.0000
  O1          0.02746      0.43120      0.01403  1.0000
  O1          0.40199      0.94268      0.68126  1.0000
  O1          0.43883      0.39716      0.84634  1.0000
  O1          0.97954      0.52142      0.50220  1.0000
  O1          0.57546      0.01552      0.18066  1.0000
  O1          0.51322      0.12443      0.25199  1.0000
  O1          0.84439      0.41430      0.58002  1.0000
  O1          0.61132      0.45908      0.91827  1.0000
  O1          0.46627      0.83912      0.75393  1.0000
  O1          0.13485      0.59949      0.08682  1.0000
  O1          0.37117      0.50916      0.42006  1.0000
  F           0.39655      0.84167      0.23908  1.0000
  F           0.13161      0.52992      0.57302  1.0000
  F           0.44253      0.57524      0.90488  1.0000
  F           0.57727      0.11892      0.73953  1.0000
  F           0.85058      0.43385      0.07200  1.0000
  F           0.53488      0.38921      0.40565  1.0000
