data_cif

_audit_creation_method             'generated by GULP'

_symmetry_space_group_name_H-M     'P 1'
_symmetry_Int_Tables_number        1
_symmetry_cell_setting             triclinic

_cell_length_a                       12.6079
_cell_length_b                       12.5737
_cell_length_c                       30.5060
_cell_angle_alpha                   89.9911
_cell_angle_beta                    89.9608
_cell_angle_gamma                  119.9569

loop_
_atom_site_label
_atom_site_fract_x
_atom_site_fract_y
_atom_site_fract_z
_atom_site_occupancy
  Ge          0.69960      0.37570      0.03389  1.0000
  Ge          0.59402      0.29367      0.36765  1.0000
  Ge          0.66952      0.26551      0.70008  1.0000
  Ge          0.27729      0.58202      0.53482  1.0000
  Ge          0.37911      0.66029      0.86810  1.0000
  Ge          0.30185      0.68620      0.20069  1.0000
  Ge          0.34291      0.65903      0.29945  1.0000
  Ge          0.31421      0.62242      0.96731  1.0000
  Ge          0.30407      0.65332      0.63335  1.0000
  Ge          0.63231      0.29642      0.79905  1.0000
  Ge          0.66304      0.33331      0.46637  1.0000
  Ge          0.66893      0.30223      0.13222  1.0000
  Ge          0.53143      0.42234      0.96942  1.0000
  Ge          0.54187      0.07877      0.30263  1.0000
  Ge          0.88664      0.43629      0.63670  1.0000
  Ge          0.44328      0.53316      0.46988  1.0000
  Ge          0.43351      0.87598      0.80345  1.0000
  Ge          0.08763      0.52153      0.13593  1.0000
  Ge          0.38896      0.48711      0.36508  1.0000
  Ge          0.09507      0.58158      0.03132  1.0000
  Ge          0.47922      0.86969      0.69872  1.0000
  Ge          0.58416      0.46762      0.86425  1.0000
  Ge          0.88001      0.37727      0.53177  1.0000
  Ge          0.49517      0.08529      0.19798  1.0000
  Ge          0.29839      0.39087      0.84718  1.0000
  Ge          0.57028      0.87534      0.17955  1.0000
  Ge          0.08884      0.66155      0.51309  1.0000
  Ge          0.67355      0.56263      0.34654  1.0000
  Ge          0.39956      0.07679      0.68071  1.0000
  Ge          0.88747      0.29599      0.01182  1.0000
  Ge          0.38052      0.24934      0.47957  1.0000
  Ge          0.86775      0.58437      0.14636  1.0000
  Ge          0.71671      0.09803      0.81219  1.0000
  Ge          0.59804      0.70720      0.97890  1.0000
  Ge          0.10497      0.37075      0.64736  1.0000
  Ge          0.25893      0.85791      0.31254  1.0000
  Ge          0.24692      0.33923      0.95051  1.0000
  Ge          0.62279      0.87597      0.28224  1.0000
  Ge          0.08953      0.72032      0.61586  1.0000
  Ge          0.72634      0.61428      0.44947  1.0000
  Ge          0.35265      0.07901      0.78364  1.0000
  Ge          0.88575      0.23911      0.11453  1.0000
  Ge          0.31528      0.20551      0.37581  1.0000
  Ge          0.88829      0.65636      0.04324  1.0000
  Ge          0.76071      0.07644      0.70829  1.0000
  Ge          0.65819      0.74937      0.87454  1.0000
  Ge          0.08606      0.30245      0.54405  1.0000
  Ge          0.21430      0.87800      0.20876  1.0000
  Ge          0.96744      0.11567      0.96804  1.0000
  Ge          0.84583      0.82044      0.30039  1.0000
  Si          0.14794      0.99586      0.63446  1.0000
  Ge          0.00573      0.83616      0.46796  1.0000
  Ge          0.12899      0.13373      0.80040  1.0000
  Ge          0.82462      0.95701      0.13121  1.0000
  Ge          0.08662      0.93259      0.36622  1.0000
  Si          0.84006      0.87754      0.03174  1.0000
  Ge          0.03409      0.12057      0.69816  1.0000
  Ge          0.88754      0.02235      0.86582  1.0000
  Ge          0.13556      0.07510      0.53449  1.0000
  Ge          0.94117      0.83237      0.19842  1.0000
  O3          0.92464      0.00975      0.01041  1.0000
  O1          0.94656      0.88355      0.34336  1.0000
  O3          0.08719      0.03274      0.67368  1.0000
  O1          0.04323      0.93549      0.51151  1.0000
  O1          0.02699      0.06931      0.84290  1.0000
  O1          0.89069      0.91944      0.17311  1.0000
  O1          0.30912      0.53985      0.33487  1.0000
  O1          0.42400      0.73692      0.66837  1.0000
  O1          0.22967      0.65923      0.00200  1.0000
  O1          0.66515      0.41625      0.83399  1.0000
  O1          0.54926      0.21767      0.16737  1.0000
  O1          0.74750      0.29785      0.50149  1.0000
  O1          0.56802      0.33837      0.00158  1.0000
  O1          0.76398      0.39831      0.66785  1.0000
  O1          0.62933      0.19837      0.33473  1.0000
  O1          0.40845      0.61821      0.50227  1.0000
  O1          0.20745      0.55500      0.16799  1.0000
  O1          0.34445      0.75660      0.83547  1.0000
  O1          0.12298      0.20843      0.97222  1.0000
  O1          0.75301      0.88326      0.30383  1.0000
  O3          0.08693      0.84927      0.63603  1.0000
  O1          0.85000      0.74471      0.47074  1.0000
  O1          0.22332      0.07306      0.80542  1.0000
  O1          0.89086      0.11282      0.13450  1.0000
  O1          0.18560      0.08307      0.35345  1.0000
  O3          0.89127      0.78624      0.02093  1.0000
  O1          0.88329      0.06772      0.68630  1.0000
  O1          0.78743      0.87265      0.85239  1.0000
  O1          0.08076      0.17207      0.52303  1.0000
  O1          0.09204      0.88537      0.18639  1.0000
  O1          0.93054      0.85411      0.25372  1.0000
  O3          0.12293      0.04842      0.59053  1.0000
  O1          0.91517      0.03167      0.92140  1.0000
  O1          0.04627      0.09839      0.75321  1.0000
  O3          0.85046      0.89932      0.08395  1.0000
  O1          0.06055      0.92355      0.42192  1.0000
  O1          0.90254      0.20678      0.97194  1.0000
  O1          0.75959      0.66407      0.30554  1.0000
  O3          0.29368      0.05871      0.64047  1.0000
  O1          0.07383      0.74800      0.47212  1.0000
  O1          0.21226      0.29014      0.80607  1.0000
  O1          0.66982      0.88945      0.13806  1.0000
  O1          0.15479      0.84916      0.35170  1.0000
  O3          0.69892      0.81394      0.01715  1.0000
  O1          0.11278      0.27413      0.68645  1.0000
  O1          0.82083      0.10712      0.85138  1.0000
  O1          0.28568      0.14482      0.51882  1.0000
  O1          0.86020      0.67916      0.18612  1.0000
  O1          0.30534      0.60493      0.24678  1.0000
  O1          0.35778      0.66770      0.58069  1.0000
  O1          0.29753      0.65990      0.91461  1.0000
  O1          0.66718      0.34816      0.74612  1.0000
  O1          0.61707      0.28830      0.07946  1.0000
  O1          0.67907      0.29660      0.41349  1.0000
  O1          0.37487      0.32976      0.95946  1.0000
  O1          0.63311      0.01413      0.29065  1.0000
  O1          0.95191      0.59400      0.62660  1.0000
  O1          0.59906      0.62498      0.45850  1.0000
  O1          0.34223      0.94078      0.79148  1.0000
  O1          0.02380      0.36543      0.12425  1.0000
  O1          0.31986      0.33269      0.35314  1.0000
  O1          0.01217      0.65423      0.02044  1.0000
  O1          0.63304      0.95344      0.68621  1.0000
  O1          0.65352      0.62203      0.85210  1.0000
  O1          0.96353      0.30570      0.52081  1.0000
  O1          0.34124      0.00029      0.18597  1.0000
  O1          0.76308      0.30975      0.99953  1.0000
  O1          0.66035      0.42441      0.33399  1.0000
  O1          0.53749      0.20067      0.66707  1.0000
  O1          0.21403      0.64890      0.50096  1.0000
  O1          0.30975      0.52858      0.83503  1.0000
  O1          0.43229      0.75051      0.16715  1.0000
  O1          0.24794      0.71624      0.31390  1.0000
  O1          0.46690      0.71684      0.98164  1.0000
  O1          0.24603      0.50105      0.64836  1.0000
  O1          0.72795      0.23982      0.81332  1.0000
  O1          0.51080      0.23827      0.48062  1.0000
  O1          0.72630      0.45465      0.14699  1.0000
  O1          0.75304      0.53468      0.02636  1.0000
  O1          0.43585      0.18893      0.35943  1.0000
  O1          0.77501      0.21257      0.69134  1.0000
  O1          0.22300      0.42326      0.52747  1.0000
  O1          0.53691      0.76472      0.85837  1.0000
  O1          0.19759      0.74026      0.19258  1.0000
  O1          0.49699      0.75974      0.30792  1.0000
  O1          0.25891      0.46723      0.97558  1.0000
  O1          0.20503      0.70939      0.64130  1.0000
  O1          0.47915      0.19466      0.80900  1.0000
  O1          0.71622      0.48775      0.47499  1.0000
  O1          0.76946      0.24815      0.14040  1.0000
  O1          0.21571      0.33218      0.89522  1.0000
  O1          0.62888      0.84917      0.22706  1.0000
  O1          0.11220      0.74644      0.56048  1.0000
  O1          0.75772      0.62055      0.39420  1.0000
  O1          0.34674      0.10724      0.72858  1.0000
  O1          0.86199      0.21103      0.05924  1.0000
  O1          0.29589      0.19646      0.43215  1.0000
  O1          0.90044      0.67239      0.09951  1.0000
  O1          0.77092      0.06774      0.76465  1.0000
  O1          0.67831      0.75935      0.93081  1.0000
  O1          0.07307      0.28435      0.60032  1.0000
  O1          0.20531      0.88887      0.26507  1.0000
  O1          0.55606      0.55956      0.99207  1.0000
  O1          0.40615      0.96481      0.32547  1.0000
  O1          0.99940      0.41339      0.65995  1.0000
  O1          0.42076      0.39681      0.49261  1.0000
  O1          0.56989      0.99069      0.82561  1.0000
  O1          0.97325      0.54197      0.15907  1.0000
  O1          0.53805      0.56519      0.34698  1.0000
  O1          0.02364      0.43355      0.01158  1.0000
  O1          0.39974      0.94004      0.68099  1.0000
  O1          0.43467      0.38971      0.84662  1.0000
  O1          0.95151      0.52552      0.51248  1.0000
  O1          0.57336      0.01393      0.18011  1.0000
  O1          0.51066      0.12258      0.25239  1.0000
  O1          0.84430      0.36248      0.58624  1.0000
  O1          0.60384      0.45134      0.91877  1.0000
  O1          0.46470      0.83258      0.75313  1.0000
  O1          0.13030      0.59753      0.08589  1.0000
  O1          0.36887      0.50308      0.41961  1.0000
  F           0.39429      0.83850      0.23841  1.0000
  F           0.12456      0.52393      0.57226  1.0000
  F           0.43947      0.56912      0.90520  1.0000
  F           0.58058      0.11555      0.73819  1.0000
  F           0.84978      0.43302      0.07135  1.0000
  F           0.53492      0.38583      0.40532  1.0000
