data_cif

_audit_creation_method             'generated by GULP'

_symmetry_space_group_name_H-M     'P 1'
_symmetry_Int_Tables_number        1
_symmetry_cell_setting             triclinic

_cell_length_a                       12.5922
_cell_length_b                       12.6343
_cell_length_c                       30.6027
_cell_angle_alpha                   90.0000
_cell_angle_beta                    90.0000
_cell_angle_gamma                  120.3241

loop_
_atom_site_label
_atom_site_fract_x
_atom_site_fract_y
_atom_site_fract_z
_atom_site_occupancy
  Ge          0.69960      0.37570      0.03389  1.0000
  Ge          0.66462      0.33997      0.36677  1.0000
  Ge          0.70209      0.34259      0.70131  1.0000
  Ge          0.34968      0.66300      0.53389  1.0000
  Ge          0.38466      0.69873      0.86677  1.0000
  Ge          0.34720      0.69610      0.20131  1.0000
  Ge          0.41569      0.72858      0.29965  1.0000
  Ge          0.34043      0.62757      0.96466  1.0000
  Ge          0.31992      0.70456      0.63211  1.0000
  Ge          0.63359      0.31011      0.79965  1.0000
  Ge          0.70885      0.41113      0.46466  1.0000
  Ge          0.72936      0.33414      0.13211  1.0000
  Ge          0.53124      0.42312      0.96861  1.0000
  Ge          0.62188      0.12410      0.30088  1.0000
  Ge          0.91936      0.51053      0.63599  1.0000
  Ge          0.51804      0.61558      0.46861  1.0000
  Ge          0.42740      0.91460      0.80088  1.0000
  Ge          0.12992      0.52816      0.13599  1.0000
  Ge          0.46206      0.55786      0.36411  1.0000
  Ge          0.12565      0.57688      0.03060  1.0000
  Ge          0.47866      0.92080      0.69666  1.0000
  Ge          0.58723      0.48084      0.86410  1.0000
  Ge          0.92363      0.46182      0.53060  1.0000
  Ge          0.57062      0.11789      0.19666  1.0000
  Ge          0.29863      0.41367      0.85347  1.0000
  Ge          0.63048      0.89669      0.18707  1.0000
  Ge          0.14951      0.74914      0.52078  1.0000
  Ge          0.75065      0.62503      0.35347  1.0000
  Ge          0.41880      0.14201      0.68707  1.0000
  Ge          0.89977      0.28956      0.02078  1.0000
  Ge          0.44170      0.33506      0.48693  1.0000
  Ge          0.92141      0.60225      0.15395  1.0000
  Ge          0.71540      0.12107      0.81790  1.0000
  Ge          0.60758      0.70364      0.98693  1.0000
  Ge          0.12787      0.43644      0.65395  1.0000
  Ge          0.33388      0.91763      0.31790  1.0000
  Ge          0.24901      0.34843      0.95562  1.0000
  Ge          0.69724      0.91807      0.29040  1.0000
  Ge          0.13030      0.79415      0.62373  1.0000
  Ge          0.80027      0.69027      0.45562  1.0000
  Ge          0.35204      0.12063      0.79040  1.0000
  Ge          0.91898      0.24455      0.12373  1.0000
  Ge          0.38330      0.27467      0.38388  1.0000
  Ge          0.92005      0.65650      0.04991  1.0000
  Ge          0.76441      0.12624      0.71563  1.0000
  Ge          0.66598      0.76402      0.88387  1.0000
  Ge          0.12924      0.38220      0.54991  1.0000
  Ge          0.28488      0.91246      0.21563  1.0000
  Ge          0.97403      0.12038      0.96532  1.0000
  Ge          0.92700      0.87417      0.30096  1.0000
  Ge          0.17208      0.06494      0.63353  1.0000
  Ge          0.07526      0.91832      0.46532  1.0000
  Ge          0.12228      0.16453      0.80096  1.0000
  Ge          0.87720      0.97376      0.13353  1.0000
  Si          0.16434      0.99851      0.36534  1.0000
  Ge          0.86531      0.88102      0.03172  1.0000
  Ge          0.04194      0.17829      0.69856  1.0000
  Si          0.88495      0.04019      0.86534  1.0000
  Ge          0.18397      0.15768      0.53172  1.0000
  Ge          0.00735      0.86041      0.19856  1.0000
  O1          0.92834      0.98187      0.98901  1.0000
  O3          0.06585      0.96463      0.32678  1.0000
  O1          0.08090      0.11229      0.65733  1.0000
  O1          0.12094      0.05683      0.48901  1.0000
  O3          0.98343      0.07407      0.82678  1.0000
  O1          0.96838      0.92641      0.15733  1.0000
  O1          0.37911      0.59943      0.33374  1.0000
  O1          0.44980      0.80189      0.66480  1.0000
  O1          0.24663      0.66167      0.99861  1.0000
  O1          0.67017      0.43927      0.83374  1.0000
  O1          0.59948      0.23681      0.16480  1.0000
  O1          0.80265      0.37703      0.49861  1.0000
  O1          0.57831      0.33984      0.99924  1.0000
  O1          0.78949      0.46470      0.66710  1.0000
  O1          0.69984      0.25587      0.33150  1.0000
  O1          0.47098      0.69885      0.49924  1.0000
  O1          0.25979      0.57400      0.16711  1.0000
  O1          0.34945      0.78283      0.83150  1.0000
  O1          0.12581      0.21784      0.97748  1.0000
  O1          0.82915      0.92808      0.31200  1.0000
  O1          0.12300      0.91525      0.64672  1.0000
  O1          0.92347      0.82086      0.47748  1.0000
  O1          0.22013      0.11062      0.81200  1.0000
  O1          0.92628      0.12344      0.14672  1.0000
  O3          0.25070      0.14489      0.36485  1.0000
  O1          0.92775      0.78815      0.02989  1.0000
  O1          0.88727      0.12093      0.69275  1.0000
  O3          0.79858      0.89381      0.86485  1.0000
  O1          0.12153      0.25054      0.52989  1.0000
  O1          0.16201      0.91777      0.19275  1.0000
  O1          0.96374      0.89670      0.24638  1.0000
  O1          0.15108      0.07285      0.57835  1.0000
  O3          0.96016      0.09179      0.90974  1.0000
  O1          0.08554      0.14200      0.74638  1.0000
  O1          0.89820      0.96585      0.07835  1.0000
  O3          0.08912      0.94691      0.40974  1.0000
  O1          0.89105      0.18693      0.98092  1.0000
  O1          0.85293      0.72182      0.31359  1.0000
  O1          0.32404      0.15110      0.64774  1.0000
  O1          0.15823      0.85176      0.48092  1.0000
  O1          0.19636      0.31688      0.81359  1.0000
  O1          0.72524      0.88760      0.14774  1.0000
  O3          0.24517      0.93415      0.35810  1.0000
  O1          0.70835      0.79318      0.02738  1.0000
  O1          0.11708      0.33511      0.69389  1.0000
  O3          0.80411      0.10455      0.85810  1.0000
  O1          0.34093      0.24552      0.52738  1.0000
  O1          0.93220      0.70359      0.19389  1.0000
  O1          0.33105      0.64411      0.25406  1.0000
  O1          0.40485      0.72571      0.58423  1.0000
  O1          0.31495      0.68556      0.91625  1.0000
  O1          0.71823      0.39459      0.75406  1.0000
  O1          0.64443      0.31299      0.08423  1.0000
  O1          0.73433      0.35314      0.41625  1.0000
  O1          0.37396      0.33021      0.96398  1.0000
  O1          0.68952      0.03851      0.31329  1.0000
  O1          0.98838      0.66803      0.63332  1.0000
  O1          0.67532      0.70849      0.46398  1.0000
  O1          0.35976      0.00019      0.81329  1.0000
  O1          0.06091      0.37066      0.13332  1.0000
  O1          0.39752      0.39963      0.35740  1.0000
  O1          0.03411      0.64338      0.02606  1.0000
  O1          0.63603      0.98843      0.70773  1.0000
  O1          0.65176      0.63907      0.85740  1.0000
  O1          0.01517      0.39532      0.52606  1.0000
  O1          0.41325      0.05027      0.20773  1.0000
  O1          0.77774      0.30992      0.01036  1.0000
  O1          0.72499      0.48158      0.34140  1.0000
  O1          0.54983      0.28380      0.68604  1.0000
  O1          0.27154      0.72877      0.51036  1.0000
  O1          0.32429      0.55712      0.84140  1.0000
  O1          0.49946      0.75490      0.18604  1.0000
  O1          0.35008      0.79551      0.33202  1.0000
  O1          0.48132      0.72036      0.99059  1.0000
  O1          0.26902      0.56567      0.65945  1.0000
  O1          0.69921      0.24319      0.83202  1.0000
  O1          0.56796      0.31833      0.49059  1.0000
  O1          0.78026      0.47303      0.15945  1.0000
  O1          0.78016      0.53444      0.03478  1.0000
  O1          0.50602      0.25709      0.37139  1.0000
  O1          0.75748      0.24463      0.69065  1.0000
  O1          0.26913      0.50426      0.53478  1.0000
  O1          0.54326      0.78161      0.87139  1.0000
  O1          0.29180      0.79407      0.19065  1.0000
  O1          0.57371      0.78175      0.30594  1.0000
  O1          0.25672      0.47227      0.98094  1.0000
  O1          0.25098      0.79145      0.64797  1.0000
  O1          0.47557      0.25695      0.80594  1.0000
  O1          0.79257      0.56643      0.48094  1.0000
  O1          0.79830      0.24725      0.14797  1.0000
  O1          0.21688      0.34963      0.90067  1.0000
  O1          0.71630      0.92866      0.23419  1.0000
  O1          0.16011      0.82574      0.56853  1.0000
  O1          0.83240      0.68906      0.40067  1.0000
  O1          0.33298      0.11004      0.73419  1.0000
  O1          0.88917      0.21295      0.06853  1.0000
  O1          0.35902      0.27711      0.43908  1.0000
  O1          0.93723      0.67937      0.10556  1.0000
  O1          0.80052      0.15349      0.77043  1.0000
  O1          0.69026      0.76159      0.93908  1.0000
  O1          0.11205      0.35932      0.60556  1.0000
  O1          0.24876      0.88521      0.27043  1.0000
  O1          0.56771      0.55429      0.99745  1.0000
  O1          0.47007      0.05502      0.31650  1.0000
  O1          0.01095      0.46697      0.66327  1.0000
  O1          0.48158      0.48441      0.49745  1.0000
  O1          0.57921      0.98368      0.81650  1.0000
  O1          0.03833      0.57173      0.16327  1.0000
  O1          0.61734      0.62849      0.35167  1.0000
  O1          0.03621      0.42368      0.01639  1.0000
  O1          0.45527      0.03296      0.67335  1.0000
  O1          0.43194      0.41021      0.85167  1.0000
  O1          0.01307      0.61502      0.51639  1.0000
  O1          0.59401      0.00573      0.17335  1.0000
  O1          0.64558      0.16193      0.24660  1.0000
  O1          0.87857      0.44833      0.58495  1.0000
  O1          0.60276      0.45527      0.91899  1.0000
  O1          0.40370      0.87677      0.74660  1.0000
  O1          0.17072      0.59037      0.08496  1.0000
  O1          0.44652      0.58343      0.41899  1.0000
  F           0.47308      0.87795      0.25968  1.0000
  F           0.16951      0.61255      0.59322  1.0000
  F           0.43366      0.57035      0.92524  1.0000
  F           0.57621      0.16075      0.75968  1.0000
  F           0.87977      0.42614      0.09322  1.0000
  F           0.61562      0.46834      0.42524  1.0000
