data_cif

_audit_creation_method             'generated by GULP'

_symmetry_space_group_name_H-M     'P 1'
_symmetry_Int_Tables_number        1
_symmetry_cell_setting             triclinic

_cell_length_a                       12.5466
_cell_length_b                       12.6029
_cell_length_c                       30.5995
_cell_angle_alpha                   90.0636
_cell_angle_beta                    89.8519
_cell_angle_gamma                  119.8748

loop_
_atom_site_label
_atom_site_fract_x
_atom_site_fract_y
_atom_site_fract_z
_atom_site_occupancy
  Ge          0.69960      0.37570      0.03389  1.0000
  Ge          0.60247      0.29810      0.36553  1.0000
  Ge          0.67613      0.27302      0.70113  1.0000
  Ge          0.28694      0.58882      0.53343  1.0000
  Ge          0.38894      0.66808      0.86674  1.0000
  Ge          0.31326      0.69292      0.19908  1.0000
  Ge          0.34870      0.66150      0.29749  1.0000
  Ge          0.31419      0.62541      0.96466  1.0000
  Ge          0.31277      0.65880      0.63163  1.0000
  Ge          0.63750      0.29983      0.79985  1.0000
  Ge          0.67205      0.33783      0.46382  1.0000
  Ge          0.67310      0.30412      0.13184  1.0000
  Ge          0.53704      0.42632      0.96833  1.0000
  Ge          0.54784      0.08166      0.30159  1.0000
  Ge          0.89032      0.43691      0.63437  1.0000
  Ge          0.44837      0.53711      0.46747  1.0000
  Ge          0.43749      0.88330      0.80283  1.0000
  Ge          0.09548      0.52250      0.13481  1.0000
  Ge          0.39512      0.49048      0.36281  1.0000
  Ge          0.09718      0.57819      0.02991  1.0000
  Ge          0.48227      0.87485      0.69848  1.0000
  Ge          0.59643      0.47812      0.86379  1.0000
  Ge          0.88751      0.38439      0.52943  1.0000
  Ge          0.50194      0.08688      0.19750  1.0000
  Ge          0.30957      0.40052      0.84525  1.0000
  Ge          0.58460      0.88249      0.17994  1.0000
  Ge          0.09454      0.66390      0.51081  1.0000
  Ge          0.68187      0.56651      0.34454  1.0000
  Ge          0.40571      0.08325      0.68180  1.0000
  Ge          0.89101      0.29837      0.01154  1.0000
  Ge          0.38781      0.25462      0.47753  1.0000
  Ge          0.87293      0.58938      0.14512  1.0000
  Ge          0.72070      0.09976      0.81268  1.0000
  Ge          0.59757      0.70816      0.97915  1.0000
  Ge          0.11279      0.37189      0.64368  1.0000
  Ge          0.26531      0.86035      0.31095  1.0000
  Ge          0.25220      0.34570      0.94779  1.0000
  Ge          0.62845      0.87875      0.28224  1.0000
  Ge          0.09489      0.72025      0.61424  1.0000
  Ge          0.73404      0.61747      0.44726  1.0000
  Ge          0.35531      0.08570      0.78396  1.0000
  Ge          0.89051      0.23897      0.11479  1.0000
  Ge          0.32194      0.20924      0.37407  1.0000
  Ge          0.88915      0.65391      0.04281  1.0000
  Ge          0.76384      0.08152      0.70913  1.0000
  Ge          0.67056      0.75965      0.87629  1.0000
  Ge          0.09726      0.31092      0.54117  1.0000
  Ge          0.21988      0.88024      0.20772  1.0000
  Ge          0.97059      0.12271      0.96479  1.0000
  Ge          0.85198      0.82430      0.29905  1.0000
  Ge          0.15095      0.00035      0.63307  1.0000
  Ge          0.01333      0.84066      0.46655  1.0000
  Ge          0.13071      0.14107      0.80142  1.0000
  Si          0.83581      0.96455      0.13217  1.0000
  Ge          0.09381      0.93586      0.36484  1.0000
  Ge          0.84340      0.88208      0.03211  1.0000
  Ge          0.03777      0.12696      0.69905  1.0000
  Si          0.89201      0.02900      0.86534  1.0000
  Ge          0.14108      0.08339      0.53136  1.0000
  Ge          0.94639      0.83837      0.19673  1.0000
  O1          0.93209      0.01717      0.00581  1.0000
  O1          0.95435      0.88746      0.34136  1.0000
  O1          0.08331      0.03289      0.67590  1.0000
  O1          0.05143      0.94213      0.50909  1.0000
  O3          0.02338      0.07612      0.84314  1.0000
  O3          0.89958      0.92906      0.17054  1.0000
  O1          0.31422      0.54137      0.33229  1.0000
  O1          0.42964      0.74292      0.66798  1.0000
  O1          0.22829      0.66115      0.99909  1.0000
  O1          0.67465      0.42217      0.83406  1.0000
  O1          0.55435      0.21907      0.16735  1.0000
  O1          0.75689      0.30171      0.49855  1.0000
  O1          0.56998      0.33987      0.00056  1.0000
  O1          0.76834      0.40000      0.66603  1.0000
  O1          0.63704      0.20200      0.33298  1.0000
  O1          0.41723      0.62422      0.50023  1.0000
  O1          0.22027      0.56348      0.16509  1.0000
  O1          0.35189      0.76258      0.83455  1.0000
  O1          0.12626      0.21531      0.96834  1.0000
  O1          0.75741      0.88467      0.30482  1.0000
  O1          0.08584      0.84439      0.63339  1.0000
  O1          0.85743      0.74684      0.46927  1.0000
  O1          0.22402      0.07863      0.80594  1.0000
  O3          0.89425      0.11049      0.13397  1.0000
  O1          0.19261      0.08614      0.35212  1.0000
  O1          0.89762      0.78441      0.02090  1.0000
  O1          0.88618      0.07350      0.68677  1.0000
  O3          0.80062      0.88677      0.85458  1.0000
  O1          0.08901      0.18158      0.51796  1.0000
  O1          0.09834      0.89033      0.18553  1.0000
  O1          0.93342      0.86141      0.25143  1.0000
  O1          0.12341      0.05774      0.58683  1.0000
  O3          0.91649      0.04082      0.91716  1.0000
  O1          0.04889      0.11132      0.75442  1.0000
  O3          0.86337      0.91874      0.08719  1.0000
  O1          0.06660      0.92663      0.42027  1.0000
  O1          0.89995      0.20798      0.97097  1.0000
  O1          0.76879      0.66799      0.30380  1.0000
  O1          0.30649      0.06924      0.64025  1.0000
  O1          0.08393      0.75435      0.47078  1.0000
  O1          0.22008      0.29674      0.80562  1.0000
  O3          0.68965      0.89861      0.13932  1.0000
  O1          0.16149      0.85191      0.35038  1.0000
  O1          0.69098      0.81051      0.01898  1.0000
  O1          0.12074      0.27711      0.68342  1.0000
  O3          0.82728      0.10622      0.85115  1.0000
  O1          0.29298      0.15080      0.51683  1.0000
  O1          0.86615      0.68594      0.18464  1.0000
  O1          0.31477      0.60940      0.24462  1.0000
  O1          0.37003      0.64623      0.58213  1.0000
  O1          0.30193      0.66470      0.91218  1.0000
  O1          0.67487      0.35444      0.74713  1.0000
  O1          0.61628      0.31643      0.08241  1.0000
  O1          0.68694      0.29968      0.41127  1.0000
  O1          0.37991      0.33595      0.95772  1.0000
  O1          0.63986      0.01716      0.28990  1.0000
  O1          0.98794      0.59357      0.64115  1.0000
  O1          0.60561      0.62641      0.45645  1.0000
  O1          0.34486      0.94770      0.79247  1.0000
  O1          0.00187      0.36426      0.14092  1.0000
  O1          0.32533      0.33593      0.35192  1.0000
  O1          0.03160      0.67000      0.03342  1.0000
  O1          0.63583      0.96286      0.68525  1.0000
  O1          0.66959      0.63387      0.85384  1.0000
  O1          0.95378      0.29315      0.53316  1.0000
  O1          0.34862      0.99986      0.18440  1.0000
  O1          0.74870      0.28422      0.00762  1.0000
  O1          0.66979      0.42885      0.33232  1.0000
  O1          0.54445      0.20641      0.66831  1.0000
  O1          0.23791      0.68014      0.50700  1.0000
  O1          0.32219      0.53821      0.83305  1.0000
  O1          0.44569      0.76012      0.16603  1.0000
  O1          0.25268      0.71825      0.31174  1.0000
  O1          0.46636      0.71804      0.98011  1.0000
  O1          0.22885      0.51645      0.65614  1.0000
  O1          0.73214      0.24156      0.81443  1.0000
  O1          0.51957      0.24535      0.47897  1.0000
  O1          0.75389      0.44611      0.15678  1.0000
  O1          0.76904      0.53158      0.01782  1.0000
  O1          0.44379      0.19424      0.35737  1.0000
  O1          0.78102      0.22018      0.69515  1.0000
  O1          0.21678      0.43376      0.51610  1.0000
  O1          0.54814      0.77227      0.85908  1.0000
  O1          0.20620      0.74367      0.19275  1.0000
  O1          0.50211      0.76255      0.30767  1.0000
  O1          0.25775      0.47041      0.97312  1.0000
  O1          0.23802      0.74189      0.62573  1.0000
  O1          0.48243      0.20196      0.80910  1.0000
  O1          0.72834      0.49258      0.47245  1.0000
  O1          0.75009      0.22273      0.12706  1.0000
  O1          0.22501      0.34027      0.89261  1.0000
  O1          0.63726      0.85049      0.22746  1.0000
  O1          0.06885      0.71945      0.55896  1.0000
  O1          0.76563      0.62507      0.39215  1.0000
  O1          0.34752      0.11197      0.72902  1.0000
  O1          0.91524      0.24069      0.05939  1.0000
  O1          0.30344      0.20033      0.43029  1.0000
  O1          0.85800      0.65476      0.09786  1.0000
  O1          0.77089      0.06681      0.76508  1.0000
  O1          0.68536      0.76401      0.93243  1.0000
  O1          0.13227      0.31101      0.59594  1.0000
  O1          0.21158      0.89260      0.26388  1.0000
  O1          0.56009      0.56168      0.99182  1.0000
  O1          0.41235      0.96715      0.32458  1.0000
  O1          0.97303      0.36337      0.64482  1.0000
  O1          0.42399      0.40076      0.49047  1.0000
  O1          0.57294      0.99581      0.82633  1.0000
  O1          0.00940      0.59143      0.14741  1.0000
  O1          0.54463      0.56693      0.34448  1.0000
  O1          0.00462      0.44639      0.00097  1.0000
  O1          0.39922      0.94351      0.68337  1.0000
  O1          0.44823      0.40314      0.84425  1.0000
  O1          0.98145      0.51555      0.50030  1.0000
  O1          0.58651      0.01978      0.18171  1.0000
  O1          0.51411      0.12389      0.25179  1.0000
  O1          0.84728      0.41296      0.57951  1.0000
  O1          0.61095      0.45629      0.91812  1.0000
  O1          0.46958      0.83926      0.75289  1.0000
  O1          0.13681      0.54939      0.07988  1.0000
  O1          0.37609      0.50972      0.41709  1.0000
  F           0.40466      0.84242      0.23810  1.0000
  F           0.13500      0.52895      0.57147  1.0000
  F           0.44602      0.57481      0.90464  1.0000
  F           0.57992      0.12040      0.74006  1.0000
  F           0.85160      0.43521      0.07224  1.0000
  F           0.54352      0.39034      0.40364  1.0000
