data_cif

_audit_creation_method             'generated by GULP'

_symmetry_space_group_name_H-M     'P 1'
_symmetry_Int_Tables_number        1
_symmetry_cell_setting             triclinic

_cell_length_a                       12.6270
_cell_length_b                       12.6069
_cell_length_c                       30.5365
_cell_angle_alpha                   90.0850
_cell_angle_beta                    89.9091
_cell_angle_gamma                  120.0534

loop_
_atom_site_label
_atom_site_fract_x
_atom_site_fract_y
_atom_site_fract_z
_atom_site_occupancy
  Ge          0.69960      0.37570      0.03389  1.0000
  Ge          0.65914      0.34449      0.36724  1.0000
  Ge          0.69035      0.33461      0.69994  1.0000
  Ge          0.33357      0.66383      0.53207  1.0000
  Ge          0.37370      0.69227      0.86706  1.0000
  Ge          0.34338      0.70134      0.20055  1.0000
  Ge          0.41158      0.72909      0.29924  1.0000
  Ge          0.33284      0.62372      0.96582  1.0000
  Ge          0.30664      0.70199      0.63132  1.0000
  Ge          0.62097      0.30682      0.79863  1.0000
  Ge          0.70203      0.41774      0.46548  1.0000
  Ge          0.72786      0.33555      0.13257  1.0000
  Ge          0.52565      0.41807      0.96843  1.0000
  Ge          0.61623      0.12728      0.30178  1.0000
  Ge          0.90835      0.50808      0.63450  1.0000
  Ge          0.51292      0.62353      0.46847  1.0000
  Ge          0.41596      0.90819      0.80120  1.0000
  Ge          0.12569      0.52850      0.13532  1.0000
  Ge          0.46046      0.56376      0.36385  1.0000
  Ge          0.11840      0.57509      0.03056  1.0000
  Ge          0.47079      0.91570      0.69647  1.0000
  Ge          0.57236      0.47231      0.86371  1.0000
  Ge          0.91703      0.46386      0.52945  1.0000
  Ge          0.56322      0.12047      0.19713  1.0000
  Ge          0.28969      0.40948      0.85407  1.0000
  Ge          0.62555      0.89990      0.18740  1.0000
  Ge          0.13451      0.74808      0.52022  1.0000
  Ge          0.74273      0.62661      0.35333  1.0000
  Ge          0.40793      0.13606      0.68661  1.0000
  Ge          0.89808      0.29184      0.02081  1.0000
  Ge          0.43497      0.33801      0.48762  1.0000
  Ge          0.91674      0.60397      0.15381  1.0000
  Ge          0.70010      0.11795      0.81976  1.0000
  Ge          0.60059      0.70271      0.98687  1.0000
  Ge          0.11780      0.43272      0.65136  1.0000
  Ge          0.33188      0.91803      0.32012  1.0000
  Ge          0.24519      0.34467      0.95774  1.0000
  Ge          0.69024      0.92035      0.29109  1.0000
  Ge          0.11547      0.78925      0.62448  1.0000
  Ge          0.79406      0.69830      0.45641  1.0000
  Ge          0.34235      0.11545      0.79034  1.0000
  Ge          0.91835      0.24743      0.12450  1.0000
  Ge          0.37952      0.28124      0.38493  1.0000
  Ge          0.91641      0.65601      0.05098  1.0000
  Ge          0.75386      0.11819      0.71709  1.0000
  Ge          0.65337      0.75570      0.88416  1.0000
  Ge          0.11856      0.38096      0.54830  1.0000
  Ge          0.28007      0.91819      0.21742  1.0000
  Ge          0.97138      0.11831      0.96702  1.0000
  Ge          0.91755      0.87452      0.30144  1.0000
  Ge          0.16144      0.06287      0.63318  1.0000
  Si          0.06330      0.91901      0.46764  1.0000
  Ge          0.11608      0.16273      0.80017  1.0000
  Ge          0.87259      0.97404      0.13404  1.0000
  Ge          0.15871      0.99940      0.36837  1.0000
  Ge          0.85789      0.87713      0.03244  1.0000
  Ge          0.03378      0.17651      0.69848  1.0000
  Ge          0.87471      0.03569      0.86550  1.0000
  Ge          0.17494      0.15738      0.53115  1.0000
  Ge          0.00142      0.86176      0.19963  1.0000
  O1          0.91974      0.97673      0.98908  1.0000
  O1          0.05477      0.96168      0.32670  1.0000
  O1          0.07010      0.11211      0.65560  1.0000
  O3          0.11126      0.05111      0.48899  1.0000
  O1          0.97466      0.07260      0.82228  1.0000
  O1          0.96290      0.92408      0.15671  1.0000
  O1          0.37474      0.59811      0.33194  1.0000
  O1          0.43753      0.79625      0.66412  1.0000
  O1          0.23818      0.66045      0.99832  1.0000
  O1          0.65756      0.43806      0.83133  1.0000
  O1          0.59673      0.24036      0.16511  1.0000
  O1          0.79662      0.38023      0.49741  1.0000
  O1          0.58000      0.34014      0.99875  1.0000
  O1          0.77593      0.45413      0.66479  1.0000
  O1          0.69421      0.25984      0.33213  1.0000
  O1          0.45557      0.70081      0.49776  1.0000
  O1          0.25809      0.58169      0.16543  1.0000
  O1          0.33814      0.77604      0.83178  1.0000
  O1          0.12182      0.21515      0.97988  1.0000
  O1          0.81981      0.92773      0.31328  1.0000
  O1          0.10955      0.91280      0.64649  1.0000
  O3          0.92102      0.82810      0.47842  1.0000
  O1          0.21288      0.10888      0.81260  1.0000
  O1          0.92492      0.12456      0.14673  1.0000
  O1          0.24829      0.15503      0.36514  1.0000
  O1          0.92292      0.78643      0.02986  1.0000
  O1          0.87811      0.11186      0.69628  1.0000
  O1          0.78414      0.87968      0.86319  1.0000
  O1          0.11221      0.25018      0.52685  1.0000
  O1          0.15679      0.92476      0.19599  1.0000
  O1          0.95050      0.89582      0.24621  1.0000
  O1          0.14407      0.07335      0.57766  1.0000
  O1          0.96203      0.09373      0.91125  1.0000
  O1          0.09140      0.14810      0.74445  1.0000
  O1          0.88893      0.96448      0.07833  1.0000
  O3          0.07514      0.94137      0.41552  1.0000
  O1          0.88961      0.18774      0.98170  1.0000
  O1          0.84518      0.72154      0.31374  1.0000
  O1          0.31290      0.14501      0.64753  1.0000
  O3          0.14031      0.85488      0.48211  1.0000
  O1          0.18561      0.31399      0.81502  1.0000
  O1          0.72124      0.89133      0.14840  1.0000
  O1          0.24605      0.93207      0.36144  1.0000
  O1          0.70214      0.78846      0.02772  1.0000
  O1          0.10237      0.33215      0.69247  1.0000
  O1          0.78576      0.10235      0.86059  1.0000
  O1          0.33055      0.24846      0.52726  1.0000
  O1          0.93205      0.70560      0.19469  1.0000
  O1          0.32724      0.64777      0.25321  1.0000
  O1          0.38722      0.70154      0.58475  1.0000
  O1          0.33669      0.70852      0.91983  1.0000
  O1          0.70572      0.38814      0.75264  1.0000
  O1          0.64651      0.33876      0.08665  1.0000
  O1          0.69716      0.33051      0.41988  1.0000
  O1          0.37152      0.34846      0.98036  1.0000
  O1          0.68545      0.04263      0.31378  1.0000
  O1          0.99271      0.66228      0.64684  1.0000
  O1          0.66823      0.69639      0.47918  1.0000
  O1          0.34598      0.99253      0.81286  1.0000
  O1          0.04076      0.37422      0.14715  1.0000
  O1          0.36819      0.40771      0.37514  1.0000
  O1          0.05411      0.66676      0.04187  1.0000
  O1          0.62665      0.98042      0.70797  1.0000
  O1          0.66392      0.62838      0.87515  1.0000
  O1          0.98137      0.37153      0.53925  1.0000
  O1          0.40741      0.05603      0.20867  1.0000
  O1          0.75701      0.28095      0.01954  1.0000
  O1          0.75395      0.49666      0.35250  1.0000
  O1          0.53864      0.27727      0.68533  1.0000
  O1          0.27515      0.75785      0.51752  1.0000
  O1          0.27888      0.53986      0.85286  1.0000
  O1          0.49523      0.75854      0.18601  1.0000
  O1          0.34511      0.79336      0.33259  1.0000
  O1          0.46300      0.68986      0.99945  1.0000
  O1          0.24344      0.56994      0.66398  1.0000
  O1          0.68707      0.24280      0.83225  1.0000
  O1          0.57279      0.35133      0.49978  1.0000
  O1          0.79182      0.46606      0.16623  1.0000
  O1          0.80019      0.52997      0.02543  1.0000
  O1          0.50481      0.29043      0.35912  1.0000
  O1          0.74452      0.23451      0.69153  1.0000
  O1          0.23450      0.50895      0.52347  1.0000
  O1          0.52775      0.74596      0.85854  1.0000
  O1          0.28990      0.80185      0.19199  1.0000
  O1          0.56952      0.78307      0.30735  1.0000
  O1          0.22884      0.46547      0.97406  1.0000
  O1          0.25201      0.80504      0.64083  1.0000
  O1          0.46295      0.25256      0.80680  1.0000
  O1          0.80718      0.57646      0.47326  1.0000
  O1          0.78145      0.23113      0.14083  1.0000
  O1          0.23675      0.32500      0.90151  1.0000
  O1          0.70989      0.93083      0.23482  1.0000
  O1          0.10582      0.79971      0.56831  1.0000
  O1          0.79788      0.71415      0.40020  1.0000
  O1          0.32351      0.10505      0.73407  1.0000
  O1          0.92915      0.23871      0.06823  1.0000
  O1          0.37539      0.25364      0.44018  1.0000
  O1          0.89105      0.66212      0.10618  1.0000
  O1          0.78474      0.14400      0.77227  1.0000
  O1          0.65884      0.78716      0.93932  1.0000
  O1          0.14258      0.37404      0.60354  1.0000
  O1          0.24775      0.89231      0.27260  1.0000
  O1          0.60305      0.56720      0.98654  1.0000
  O1          0.46710      0.05619      0.31974  1.0000
  O1          0.98007      0.43038      0.65183  1.0000
  O1          0.43693      0.47575      0.48822  1.0000
  O1          0.56465      0.97997      0.81945  1.0000
  O1          0.05439      0.60614      0.15353  1.0000
  O1          0.59521      0.58460      0.34069  1.0000
  O1          0.00476      0.43920      0.00782  1.0000
  O1          0.44863      0.02935      0.67380  1.0000
  O1          0.43680      0.45015      0.84101  1.0000
  O1          0.02930      0.60085      0.50686  1.0000
  O1          0.58527      0.00668      0.17437  1.0000
  O1          0.63744      0.16402      0.24739  1.0000
  O1          0.87306      0.49263      0.58002  1.0000
  O1          0.54191      0.39787      0.91397  1.0000
  O1          0.39640      0.87140      0.74678  1.0000
  O1          0.16199      0.54482      0.08085  1.0000
  O1          0.49334      0.63905      0.41395  1.0000
  F           0.47113      0.88103      0.26144  1.0000
  F           0.15455      0.60998      0.59376  1.0000
  F           0.42530      0.56426      0.92821  1.0000
  F           0.56210      0.15500      0.76097  1.0000
  F           0.87923      0.42777      0.09501  1.0000
  F           0.60953      0.47526      0.42825  1.0000
