data_cif

_audit_creation_method             'generated by GULP'

_symmetry_space_group_name_H-M     'P 1'
_symmetry_Int_Tables_number        1
_symmetry_cell_setting             triclinic

_cell_length_a                       12.0110
_cell_length_b                       11.9722
_cell_length_c                       29.5553
_cell_angle_alpha                   89.7523
_cell_angle_beta                    90.1513
_cell_angle_gamma                  120.1357

loop_
_atom_site_label
_atom_site_fract_x
_atom_site_fract_y
_atom_site_fract_z
_atom_site_occupancy
  Si          0.69960      0.37570      0.03389  1.0000
  Si          0.61745      0.31712      0.36460  1.0000
  Ge          0.68340      0.30746      0.69748  1.0000
  Si          0.29208      0.61384      0.52533  1.0000
  Si          0.37213      0.66621      0.86759  1.0000
  Si          0.32311      0.70244      0.19698  1.0000
  Si          0.37572      0.69712      0.29711  1.0000
  Si          0.31710      0.61580      0.96780  1.0000
  Si          0.30185      0.66728      0.62574  1.0000
  Ge          0.61563      0.30049      0.80073  1.0000
  Si          0.66872      0.37404      0.46486  1.0000
  Si          0.70234      0.32162      0.13411  1.0000
  Si          0.52602      0.41509      0.97055  1.0000
  Si          0.58010      0.10690      0.30022  1.0000
  Si          0.89723      0.47791      0.63009  1.0000
  Si          0.46504      0.57662      0.46166  1.0000
  Ge          0.40915      0.87284      0.79805  1.0000
  Si          0.11202      0.52979      0.13270  1.0000
  Si          0.41427      0.52264      0.36055  1.0000
  Si          0.10678      0.58032      0.03146  1.0000
  Ge          0.46567      0.88061      0.69165  1.0000
  Si          0.58293      0.47081      0.86945  1.0000
  Si          0.88266      0.41755      0.52913  1.0000
  Si          0.52961      0.11076      0.19884  1.0000
  Si          0.30108      0.38933      0.85261  1.0000
  Si          0.60159      0.90303      0.18344  1.0000
  Si          0.09582      0.69744      0.51404  1.0000
  Si          0.69471      0.59488      0.34791  1.0000
  Ge          0.39851      0.10340      0.68084  1.0000
  Si          0.89920      0.29896      0.01777  1.0000
  Si          0.38996      0.29531      0.47843  1.0000
  Si          0.90356      0.60074      0.14742  1.0000
  Si          0.69315      0.09353      0.81429  1.0000
  Si          0.59504      0.69620      0.98324  1.0000
  Si          0.09521      0.39137      0.64257  1.0000
  Si          0.29877      0.89722      0.31312  1.0000
  Si          0.24753      0.33463      0.95342  1.0000
  Si          0.65736      0.90615      0.28395  1.0000
  Si          0.10418      0.75599      0.61451  1.0000
  Si          0.74345      0.65534      0.44819  1.0000
  Ge          0.32788      0.08046      0.78199  1.0000
  Si          0.91065      0.25042      0.11825  1.0000
  Si          0.33671      0.24442      0.37767  1.0000
  Si          0.90703      0.65803      0.04699  1.0000
  Si          0.75005      0.08599      0.71257  1.0000
  Si          0.65394      0.74876      0.88288  1.0000
  Si          0.08059      0.33482      0.54185  1.0000
  Si          0.25046      0.90991      0.21268  1.0000
  Si          0.96645      0.11944      0.96672  1.0000
  Si          0.87502      0.84399      0.29795  1.0000
  Si          0.15115      0.03385      0.62920  1.0000
  Si          0.02299      0.87396      0.46324  1.0000
  Si          0.11431      0.14470      0.79985  1.0000
  Si          0.84921      0.97080      0.13280  1.0000
  Si          0.11843      0.96473      0.36264  1.0000
  Si          0.84440      0.87599      0.03220  1.0000
  Si          0.03032      0.14682      0.69712  1.0000
  Si          0.87259      0.02841      0.86578  1.0000
  Si          0.13928      0.11625      0.52837  1.0000
  Si          0.97117      0.84876      0.19759  1.0000
  O2          0.92148      0.99464      0.99803  1.0000
  O2          0.99751      0.92347      0.32995  1.0000
  O2          0.06487      0.06121      0.66478  1.0000
  O2          0.06250      0.99527      0.49541  1.0000
  O2          0.98617      0.07234      0.83009  1.0000
  O2          0.92968      0.92801      0.16451  1.0000
  O2          0.33725      0.57092      0.32820  1.0000
  O3          0.42591      0.74867      0.65676  1.0000
  O2          0.23201      0.65554      0.99909  1.0000
  O3          0.66288      0.42644      0.83917  1.0000
  O2          0.58040      0.23809      0.16709  1.0000
  O2          0.75423      0.33911      0.49836  1.0000
  O2          0.57402      0.33752      0.00271  1.0000
  O3          0.78063      0.43989      0.66366  1.0000
  O2          0.65619      0.23119      0.33299  1.0000
  O2          0.41377      0.65322      0.49233  1.0000
  O2          0.23883      0.57990      0.16413  1.0000
  O3          0.32909      0.74316      0.83464  1.0000
  O2          0.12031      0.20872      0.97326  1.0000
  O2          0.78307      0.90552      0.30397  1.0000
  O2          0.10615      0.88141      0.63544  1.0000
  O2          0.86907      0.78193      0.46819  1.0000
  O3          0.18949      0.07015      0.80682  1.0000
  O2          0.91271      0.12508      0.13833  1.0000
  O2          0.21123      0.11871      0.35708  1.0000
  O2          0.90616      0.78400      0.02688  1.0000
  O2          0.87622      0.08235      0.69584  1.0000
  O2          0.78128      0.87369      0.86270  1.0000
  O2          0.07706      0.20758      0.52124  1.0000
  O2          0.12531      0.91239      0.19291  1.0000
  O2          0.92802      0.86063      0.24745  1.0000
  O2          0.11830      0.06219      0.57899  1.0000
  O2          0.93132      0.07302      0.91540  1.0000
  O2          0.07439      0.14563      0.74806  1.0000
  O2          0.86179      0.93257      0.08211  1.0000
  O2          0.06373      0.92635      0.41280  1.0000
  O2          0.89723      0.20106      0.97936  1.0000
  O2          0.79377      0.69166      0.30962  1.0000
  O3          0.29925      0.11528      0.63828  1.0000
  O2          0.09404      0.79417      0.47577  1.0000
  O2          0.20614      0.29529      0.81364  1.0000
  O2          0.69830      0.90192      0.14526  1.0000
  O2          0.19950      0.89407      0.35110  1.0000
  O2          0.69212      0.79394      0.02150  1.0000
  O2          0.09761      0.29579      0.68110  1.0000
  O2          0.78832      0.09459      0.85348  1.0000
  O2          0.29173      0.19873      0.51688  1.0000
  O2          0.90285      0.69721      0.18565  1.0000
  O2          0.32027      0.64215      0.24675  1.0000
  O2          0.35420      0.66769      0.57497  1.0000
  O2          0.31628      0.67024      0.91743  1.0000
  O1          0.66440      0.36788      0.74796  1.0000
  O2          0.64364      0.31907      0.08408  1.0000
  O2          0.67171      0.31646      0.41519  1.0000
  O2          0.36988      0.32725      0.97296  1.0000
  O2          0.66709      0.03785      0.30275  1.0000
  O2          0.97235      0.63430      0.63304  1.0000
  O2          0.62078      0.66534      0.46554  1.0000
  O1          0.30421      0.92997      0.79371  1.0000
  O2          0.04354      0.37336      0.13577  1.0000
  O2          0.32714      0.36616      0.35824  1.0000
  O2          0.03859      0.66810      0.02806  1.0000
  O3          0.63249      0.97273      0.68596  1.0000
  O2          0.66618      0.62757      0.86562  1.0000
  O2          0.94862      0.32787      0.52527  1.0000
  O2          0.37382      0.04305      0.19509  1.0000
  O2          0.76562      0.29987      0.01072  1.0000
  O2          0.69401      0.46013      0.34163  1.0000
  O1          0.54277      0.23660      0.66721  1.0000
  O2          0.22536      0.69165      0.50412  1.0000
  O2          0.30130      0.52319      0.84508  1.0000
  O2          0.46660      0.77054      0.17502  1.0000
  O2          0.29966      0.76325      0.31988  1.0000
  O2          0.45962      0.69223      0.99063  1.0000
  O2          0.23056      0.52451      0.64907  1.0000
  O3          0.71187      0.23468      0.81482  1.0000
  O2          0.52485      0.29769      0.48668  1.0000
  O2          0.77085      0.46591      0.15552  1.0000
  O2          0.78029      0.53194      0.02812  1.0000
  O2          0.46190      0.24258      0.35906  1.0000
  O3          0.76643      0.22372      0.70150  1.0000
  O2          0.20634      0.45791      0.52079  1.0000
  O2          0.52971      0.75024      0.86173  1.0000
  O2          0.24923      0.78449      0.19223  1.0000
  O2          0.53136      0.77909      0.30276  1.0000
  O2          0.24515      0.45966      0.97218  1.0000
  O2          0.22851      0.75030      0.63272  1.0000
  O1          0.45497      0.20318      0.81057  1.0000
  O2          0.74302      0.53030      0.46882  1.0000
  O2          0.78550      0.24908      0.13855  1.0000
  O2          0.23217      0.31568      0.89928  1.0000
  O2          0.67507      0.90580      0.22976  1.0000
  O2          0.10278      0.77308      0.56015  1.0000
  O2          0.76357      0.67125      0.39400  1.0000
  O1          0.31118      0.10938      0.72640  1.0000
  O2          0.90535      0.22962      0.06409  1.0000
  O2          0.31779      0.22519      0.43185  1.0000
  O2          0.90712      0.67548      0.10114  1.0000
  O2          0.73502      0.05776      0.76674  1.0000
  O2          0.66885      0.76906      0.93709  1.0000
  O2          0.08648      0.31680      0.59593  1.0000
  O2          0.23024      0.90446      0.26680  1.0000
  O2          0.58159      0.55712      0.99252  1.0000
  O2          0.43838      0.02151      0.32260  1.0000
  O2          0.97284      0.40923      0.65211  1.0000
  O2          0.40631      0.43612      0.48579  1.0000
  O3          0.54772      0.98802      0.82543  1.0000
  O2          0.02853      0.58658      0.15589  1.0000
  O2          0.55557      0.57947      0.33783  1.0000
  O2          0.02355      0.43890      0.00842  1.0000
  O1          0.39133      0.95886      0.67047  1.0000
  O2          0.44225      0.40665      0.84465  1.0000
  O2          0.96709      0.55945      0.50643  1.0000
  O2          0.58812      0.02900      0.17523  1.0000
  O2          0.58127      0.16200      0.24969  1.0000
  O2          0.83614      0.42127      0.58030  1.0000
  O2          0.58023      0.41686      0.92027  1.0000
  O1          0.42761      0.82132      0.74618  1.0000
  O2          0.16227      0.58222      0.08179  1.0000
  O2          0.41388      0.57659      0.41078  1.0000
  F           0.44987      0.90033      0.24787  1.0000
  F           0.09809      0.54654      0.57836  1.0000
  F           0.44994      0.54831      0.91680  1.0000
  F           0.51924      0.10028      0.74125  1.0000
  F           0.90160      0.45040      0.08212  1.0000
  F           0.54357      0.44615      0.41282  1.0000
