data_cif

_audit_creation_method             'generated by GULP'

_symmetry_space_group_name_H-M     'P 1'
_symmetry_Int_Tables_number        1
_symmetry_cell_setting             triclinic

_cell_length_a                       11.9629
_cell_length_b                       11.9554
_cell_length_c                       29.5341
_cell_angle_alpha                   89.7429
_cell_angle_beta                    90.0576
_cell_angle_gamma                  119.6162

loop_
_atom_site_label
_atom_site_fract_x
_atom_site_fract_y
_atom_site_fract_z
_atom_site_occupancy
  Si          0.69960      0.37570      0.03389  1.0000
  Ge          0.61361      0.30814      0.36783  1.0000
  Si          0.66662      0.29084      0.70223  1.0000
  Si          0.29438      0.62755      0.53962  1.0000
  Si          0.37336      0.67272      0.86956  1.0000
  Si          0.31677      0.69325      0.19969  1.0000
  Si          0.37065      0.69418      0.30012  1.0000
  Si          0.31970      0.61562      0.96984  1.0000
  Si          0.29126      0.67406      0.63982  1.0000
  Si          0.61401      0.29416      0.80256  1.0000
  Ge          0.67998      0.37602      0.46858  1.0000
  Si          0.69738      0.31896      0.13426  1.0000
  Si          0.52645      0.41286      0.96884  1.0000
  Si          0.57585      0.10106      0.29836  1.0000
  Si          0.88065      0.46185      0.63822  1.0000
  Ge          0.45877      0.58199      0.47204  1.0000
  Si          0.41183      0.88472      0.80528  1.0000
  Si          0.10568      0.52122      0.13604  1.0000
  Si          0.40410      0.52384      0.36810  1.0000
  Si          0.10903      0.57666      0.03465  1.0000
  Si          0.46377      0.88372      0.70394  1.0000
  Si          0.57708      0.46689      0.86734  1.0000
  Si          0.88772      0.41185      0.53646  1.0000
  Si          0.52383      0.10381      0.19712  1.0000
  Si          0.29634      0.39536      0.85405  1.0000
  Si          0.59367      0.89234      0.18392  1.0000
  Si          0.08799      0.69653      0.52338  1.0000
  Ge          0.69471      0.59648      0.35210  1.0000
  Si          0.38913      0.09096      0.68811  1.0000
  Si          0.90080      0.29758      0.02004  1.0000
  Ge          0.39612      0.29262      0.48730  1.0000
  Si          0.89765      0.59529      0.15025  1.0000
  Si          0.69164      0.09306      0.81841  1.0000
  Si          0.59797      0.69304      0.98359  1.0000
  Si          0.09478      0.39532      0.65274  1.0000
  Si          0.29465      0.89847      0.31394  1.0000
  Si          0.24753      0.33498      0.95455  1.0000
  Si          0.65164      0.89764      0.28419  1.0000
  Si          0.07887      0.74196      0.62432  1.0000
  Ge          0.74906      0.66137      0.45511  1.0000
  Si          0.33405      0.08614      0.78881  1.0000
  Si          0.90509      0.24431      0.12049  1.0000
  Si          0.32710      0.24026      0.38482  1.0000
  Si          0.90756      0.65468      0.04961  1.0000
  Si          0.74145      0.08369      0.71803  1.0000
  Si          0.65465      0.74526      0.88305  1.0000
  Si          0.09769      0.34400      0.55231  1.0000
  Si          0.24618      0.90390      0.21303  1.0000
  Si          0.96827      0.11731      0.96919  1.0000
  Si          0.87626      0.84398      0.29964  1.0000
  Si          0.13849      0.01974      0.63873  1.0000
  Si          0.02696      0.88181      0.47031  1.0000
  Si          0.11583      0.14790      0.80426  1.0000
  Si          0.84269      0.96378      0.13427  1.0000
  Si          0.11352      0.96411      0.36729  1.0000
  Si          0.84583      0.87307      0.03373  1.0000
  Si          0.02148      0.14579      0.70362  1.0000
  Si          0.87232      0.02497      0.86879  1.0000
  Si          0.14941      0.11654      0.53842  1.0000
  Si          0.96842      0.84506      0.19932  1.0000
  O2          0.92638      0.99443      0.00119  1.0000
  O2          0.98960      0.92112      0.33583  1.0000
  O2          0.06157      0.06357      0.67173  1.0000
  O2          0.07747      0.00764      0.50100  1.0000
  O2          0.99464      0.06732      0.83671  1.0000
  O2          0.92290      0.92148      0.16649  1.0000
  O2          0.32932      0.57091      0.33341  1.0000
  O2          0.41337      0.75714      0.67257  1.0000
  O2          0.23507      0.65345      0.00277  1.0000
  O2          0.65291      0.41797      0.83459  1.0000
  O2          0.57227      0.23079      0.16547  1.0000
  O3          0.76965      0.33200      0.50464  1.0000
  O2          0.57744      0.33703      0.00093  1.0000
  O2          0.75295      0.41263      0.66932  1.0000
  O3          0.65252      0.22090      0.33028  1.0000
  O3          0.41428      0.67054      0.50626  1.0000
  O2          0.23109      0.56896      0.16816  1.0000
  O2          0.33504      0.75961      0.83771  1.0000
  O2          0.12218      0.20766      0.97422  1.0000
  O2          0.77808      0.90018      0.30500  1.0000
  O2          0.07647      0.86619      0.64519  1.0000
  O3          0.87669      0.80501      0.47615  1.0000
  O2          0.20811      0.08573      0.80933  1.0000
  O2          0.90351      0.11706      0.14062  1.0000
  O2          0.19942      0.11890      0.36338  1.0000
  O2          0.90929      0.78184      0.02928  1.0000
  O2          0.86789      0.08400      0.69807  1.0000
  O2          0.78085      0.87135      0.86321  1.0000
  O2          0.10143      0.22079      0.53153  1.0000
  O2          0.12129      0.90504      0.19203  1.0000
  O2          0.93875      0.86884      0.25003  1.0000
  O2          0.11690      0.05335      0.58809  1.0000
  O2          0.92604      0.06436      0.91903  1.0000
  O2          0.06108      0.13356      0.75414  1.0000
  O2          0.85840      0.92764      0.08372  1.0000
  O2          0.07038      0.92390      0.41863  1.0000
  O2          0.89965      0.20012      0.98170  1.0000
  O3          0.79554      0.69441      0.30849  1.0000
  O2          0.29089      0.08989      0.64965  1.0000
  O2          0.08815      0.79217      0.48447  1.0000
  O2          0.19715      0.29924      0.81611  1.0000
  O2          0.69085      0.89166      0.14564  1.0000
  O2          0.19706      0.89770      0.35228  1.0000
  O2          0.69488      0.79094      0.02156  1.0000
  O2          0.09315      0.29669      0.69105  1.0000
  O2          0.79033      0.09519      0.85672  1.0000
  O3          0.29942      0.18772      0.52981  1.0000
  O2          0.89703      0.69229      0.18875  1.0000
  O2          0.31302      0.63608      0.25030  1.0000
  O2          0.35262      0.67988      0.58999  1.0000
  O2          0.31741      0.67298      0.91986  1.0000
  O2          0.66836      0.35017      0.75202  1.0000
  O2          0.64136      0.31982      0.08402  1.0000
  O1          0.69876      0.32174      0.41620  1.0000
  O2          0.37075      0.32511      0.97233  1.0000
  O2          0.65937      0.02796      0.30251  1.0000
  O2          0.94871      0.61758      0.64213  1.0000
  O1          0.62065      0.68341      0.46542  1.0000
  O2          0.32455      0.95418      0.80762  1.0000
  O2          0.03698      0.36518      0.13913  1.0000
  O2          0.34082      0.36935      0.36100  1.0000
  O2          0.04013      0.66445      0.03169  1.0000
  O2          0.61955      0.95134      0.70021  1.0000
  O2          0.66426      0.62282      0.86442  1.0000
  O2          0.96486      0.33144      0.53454  1.0000
  O2          0.36790      0.03607      0.19482  1.0000
  O2          0.76815      0.30010      0.01210  1.0000
  O1          0.67275      0.44991      0.33782  1.0000
  O2          0.52344      0.22379      0.67991  1.0000
  O2          0.22447      0.70118      0.51706  1.0000
  O2          0.29737      0.53037      0.84695  1.0000
  O2          0.45978      0.75872      0.17729  1.0000
  O2          0.29949      0.76661      0.32261  1.0000
  O2          0.46306      0.69105      0.99173  1.0000
  O2          0.22462      0.53058      0.66213  1.0000
  O2          0.69041      0.22683      0.82505  1.0000
  O1          0.52770      0.27452      0.48976  1.0000
  O2          0.76396      0.46109      0.15732  1.0000
  O2          0.78198      0.53138      0.02941  1.0000
  O3          0.44689      0.22191      0.37312  1.0000
  O2          0.74135      0.20909      0.69779  1.0000
  O2          0.22345      0.47057      0.53228  1.0000
  O2          0.52895      0.74667      0.86399  1.0000
  O2          0.24483      0.77732      0.19371  1.0000
  O2          0.52668      0.77026      0.30342  1.0000
  O2          0.24643      0.45973      0.97461  1.0000
  O2          0.20648      0.74570      0.64399  1.0000
  O2          0.45860      0.21256      0.80786  1.0000
  O1          0.75156      0.53750      0.48300  1.0000
  O2          0.77884      0.24402      0.13972  1.0000
  O2          0.22779      0.31982      0.90038  1.0000
  O2          0.66920      0.89624      0.22995  1.0000
  O2          0.07891      0.76221      0.57018  1.0000
  O1          0.78739      0.66833      0.39856  1.0000
  O2          0.31597      0.08813      0.73457  1.0000
  O2          0.90447      0.22631      0.06629  1.0000
  O3          0.30439      0.23961      0.43815  1.0000
  O2          0.90315      0.67059      0.10383  1.0000
  O2          0.76086      0.08640      0.77223  1.0000
  O2          0.67173      0.76335      0.93723  1.0000
  O2          0.10049      0.32570      0.60660  1.0000
  O2          0.22434      0.89990      0.26722  1.0000
  O2          0.58408      0.55341      0.99206  1.0000
  O2          0.43302      0.02447      0.32138  1.0000
  O2          0.96642      0.40516      0.66047  1.0000
  O1          0.43235      0.44584      0.50037  1.0000
  O2          0.55276      0.96908      0.82803  1.0000
  O2          0.02178      0.57878      0.15922  1.0000
  O3          0.55206      0.59960      0.35374  1.0000
  O2          0.02592      0.43636      0.01144  1.0000
  O2          0.40506      0.96628      0.68021  1.0000
  O2          0.43579      0.41010      0.84464  1.0000
  O2          0.96824      0.55537      0.51391  1.0000
  O2          0.57871      0.01729      0.17427  1.0000
  O2          0.57763      0.15528      0.24755  1.0000
  O2          0.83382      0.41264      0.58722  1.0000
  O2          0.57828      0.41307      0.91793  1.0000
  O2          0.41236      0.83156      0.75480  1.0000
  O2          0.16010      0.57483      0.08551  1.0000
  O3          0.38248      0.55213      0.41945  1.0000
  F           0.44514      0.89416      0.24906  1.0000
  F           0.10052      0.54704      0.58747  1.0000
  F           0.44711      0.54399      0.91881  1.0000
  F           0.54124      0.09244      0.75313  1.0000
  F           0.89925      0.44621      0.08517  1.0000
  F           0.57144      0.44490      0.42297  1.0000
