data_cif

_audit_creation_method             'generated by GULP'

_symmetry_space_group_name_H-M     'P 1'
_symmetry_Int_Tables_number        1
_symmetry_cell_setting             triclinic

_cell_length_a                       11.9670
_cell_length_b                       12.0110
_cell_length_c                       29.5553
_cell_angle_alpha                   90.1513
_cell_angle_beta                    90.0959
_cell_angle_gamma                  120.0929

loop_
_atom_site_label
_atom_site_fract_x
_atom_site_fract_y
_atom_site_fract_z
_atom_site_occupancy
  Ge          0.69960      0.37570      0.03389  1.0000
  Si          0.63135      0.32366      0.37030  1.0000
  Si          0.68993      0.30008      0.70101  1.0000
  Si          0.30462      0.62043      0.53339  1.0000
  Si          0.39321      0.67799      0.86174  1.0000
  Si          0.34085      0.70568      0.20400  1.0000
  Si          0.39125      0.70106      0.30421  1.0000
  Si          0.33977      0.63433      0.96215  1.0000
  Si          0.30994      0.67836      0.63352  1.0000
  Si          0.63302      0.29444      0.80127  1.0000
  Si          0.68543      0.38047      0.47052  1.0000
  Ge          0.70656      0.31490      0.13714  1.0000
  Si          0.52915      0.41908      0.96649  1.0000
  Si          0.59196      0.11068      0.30696  1.0000
  Si          0.90016      0.47296      0.63662  1.0000
  Si          0.47726      0.58199      0.46911  1.0000
  Si          0.43044      0.88817      0.79806  1.0000
  Ge          0.13421      0.53607      0.13445  1.0000
  Si          0.42674      0.52622      0.36786  1.0000
  Ge          0.12645      0.58482      0.02806  1.0000
  Si          0.48441      0.89138      0.69695  1.0000
  Si          0.58951      0.46486      0.86553  1.0000
  Si          0.89629      0.41860      0.53524  1.0000
  Si          0.53624      0.11187      0.20586  1.0000
  Si          0.30961      0.39813      0.85044  1.0000
  Si          0.61772      0.91151      0.18901  1.0000
  Si          0.10403      0.69832      0.51985  1.0000
  Si          0.70809      0.60000      0.35418  1.0000
  Si          0.41217      0.09958      0.68431  1.0000
  Ge          0.90366      0.29486      0.01725  1.0000
  Si          0.40631      0.30257      0.48382  1.0000
  Si          0.91353      0.59938      0.15070  1.0000
  Si          0.71174      0.09440      0.81484  1.0000
  Si          0.61569      0.70359      0.97897  1.0000
  Si          0.10983      0.40130      0.64952  1.0000
  Si          0.31085      0.89859      0.31964  1.0000
  Si          0.25106      0.34795      0.95091  1.0000
  Si          0.67242      0.91266      0.28982  1.0000
  Si          0.10090      0.75097      0.62036  1.0000
  Si          0.75664      0.65999      0.45466  1.0000
  Si          0.35171      0.08786      0.78460  1.0000
  Ge          0.92660      0.24718      0.11840  1.0000
  Si          0.34902      0.24875      0.38339  1.0000
  Si          0.92106      0.66381      0.04898  1.0000
  Si          0.76263      0.09204      0.71408  1.0000
  Si          0.67223      0.74552      0.87826  1.0000
  Si          0.09714      0.34030      0.54909  1.0000
  Si          0.25829      0.90493      0.21929  1.0000
  Si          0.97321      0.11705      0.96561  1.0000
  Si          0.88761      0.84677      0.30312  1.0000
  Si          0.16306      0.03078      0.63436  1.0000
  Si          0.03626      0.87817      0.46921  1.0000
  Si          0.13310      0.14878      0.79965  1.0000
  Si          0.86236      0.96937      0.13626  1.0000
  Si          0.13107      0.96817      0.36861  1.0000
  Si          0.86024      0.88325      0.03353  1.0000
  Si          0.04232      0.15345      0.69905  1.0000
  Si          0.89080      0.02278      0.86478  1.0000
  Si          0.15829      0.12216      0.53399  1.0000
  Si          0.97864      0.84393      0.20219  1.0000
  O2          0.94584      0.00342      0.00119  1.0000
  O2          0.01241      0.92659      0.33443  1.0000
  O2          0.08359      0.07380      0.66635  1.0000
  O2          0.07905      0.00142      0.50092  1.0000
  O2          0.01179      0.06698      0.83182  1.0000
  O2          0.93471      0.91358      0.16649  1.0000
  O2          0.35151      0.57622      0.33550  1.0000
  O2          0.43614      0.76609      0.66461  1.0000
  O3          0.25839      0.67700      0.99317  1.0000
  O2          0.66795      0.41488      0.83477  1.0000
  O3          0.58061      0.23619      0.17558  1.0000
  O2          0.76896      0.34206      0.50349  1.0000
  O3          0.56716      0.34049      0.00006  1.0000
  O2          0.77586      0.42475      0.66939  1.0000
  O2          0.66953      0.23626      0.33911  1.0000
  O2          0.42715      0.65868      0.50054  1.0000
  O3          0.26389      0.58568      0.17104  1.0000
  O2          0.35383      0.76030      0.82873  1.0000
  O2          0.12565      0.22450      0.97184  1.0000
  O2          0.79833      0.91135      0.30967  1.0000
  O2          0.10154      0.87731      0.64037  1.0000
  O2          0.88198      0.78739      0.47473  1.0000
  O2          0.22512      0.08689      0.80459  1.0000
  O3          0.93690      0.11909      0.14323  1.0000
  O2          0.22306      0.12192      0.36328  1.0000
  O2          0.92471      0.79364      0.03224  1.0000
  O2          0.88834      0.09227      0.69349  1.0000
  O2          0.79948      0.86924      0.85765  1.0000
  O2          0.09466      0.21267      0.52932  1.0000
  O2          0.13336      0.90735      0.19910  1.0000
  O2          0.93403      0.85806      0.25181  1.0000
  O2          0.14642      0.06715      0.58386  1.0000
  O2          0.94486      0.05587      0.91539  1.0000
  O2          0.08070      0.13714      0.74921  1.0000
  O2          0.86143      0.92852      0.08446  1.0000
  O2          0.07448      0.92897      0.41852  1.0000
  O3          0.89177      0.18372      0.97469  1.0000
  O2          0.80600      0.69593      0.31576  1.0000
  O2          0.31539      0.10186      0.64603  1.0000
  O2          0.10514      0.79614      0.48167  1.0000
  O2          0.21289      0.29963      0.81218  1.0000
  O2          0.71176      0.91061      0.15005  1.0000
  O2          0.21311      0.89793      0.35790  1.0000
  O2          0.71127      0.80158      0.01751  1.0000
  O2          0.11299      0.30519      0.68750  1.0000
  O2          0.80833      0.09276      0.85329  1.0000
  O2          0.30984      0.20540      0.52205  1.0000
  O2          0.91246      0.69349      0.18988  1.0000
  O2          0.33681      0.64579      0.25383  1.0000
  O2          0.36491      0.67788      0.58316  1.0000
  O2          0.33937      0.68627      0.91138  1.0000
  O2          0.69060      0.35501      0.75160  1.0000
  O1          0.63918      0.29627      0.08436  1.0000
  O2          0.68799      0.32433      0.42049  1.0000
  O2          0.37275      0.33780      0.96945  1.0000
  O2          0.67980      0.04238      0.30936  1.0000
  O2          0.96921      0.62900      0.63915  1.0000
  O2          0.63369      0.66993      0.47218  1.0000
  O2          0.34172      0.95519      0.80194  1.0000
  O1          0.07709      0.37400      0.13012  1.0000
  O2          0.33895      0.37024      0.36446  1.0000
  O3          0.03432      0.65952      0.02236  1.0000
  O2          0.64090      0.96073      0.69465  1.0000
  O2          0.67919      0.62051      0.86167  1.0000
  O2          0.96401      0.33053      0.53150  1.0000
  O2          0.37948      0.03837      0.20202  1.0000
  O1          0.77046      0.30593      0.00361  1.0000
  O2          0.70718      0.46551      0.34713  1.0000
  O2          0.54692      0.23363      0.67803  1.0000
  O2          0.23652      0.69582      0.51143  1.0000
  O2          0.31541      0.53346      0.84053  1.0000
  O2          0.48386      0.77786      0.18149  1.0000
  O2          0.31483      0.76715      0.32704  1.0000
  O2          0.48254      0.70581      0.98548  1.0000
  O2          0.24380      0.53616      0.65629  1.0000
  O2          0.70936      0.22691      0.82308  1.0000
  O2          0.54114      0.30469      0.49192  1.0000
  O3          0.77238      0.47695      0.15123  1.0000
  O3          0.78334      0.54247      0.03791  1.0000
  O2          0.47511      0.24810      0.36452  1.0000
  O2          0.76447      0.21907      0.69547  1.0000
  O2          0.22256      0.46449      0.52864  1.0000
  O2          0.54915      0.74819      0.85719  1.0000
  O2          0.25682      0.77923      0.19813  1.0000
  O2          0.54740      0.78525      0.30859  1.0000
  O2          0.25675      0.47796      0.96913  1.0000
  O2          0.22796      0.75202      0.63917  1.0000
  O2          0.47676      0.21248      0.80522  1.0000
  O2          0.75798      0.53618      0.47496  1.0000
  O1          0.80388      0.25155      0.14697  1.0000
  O2          0.23398      0.32946      0.89656  1.0000
  O2          0.69138      0.91625      0.23568  1.0000
  O2          0.10126      0.76903      0.56617  1.0000
  O2          0.77744      0.67549      0.40049  1.0000
  O2          0.33580      0.09208      0.73041  1.0000
  O1          0.89768      0.20156      0.06280  1.0000
  O2          0.33157      0.23140      0.43755  1.0000
  O2          0.94930      0.67702      0.10314  1.0000
  O2          0.78187      0.09236      0.76826  1.0000
  O2          0.69026      0.76944      0.93234  1.0000
  O2          0.10260      0.32554      0.60321  1.0000
  O2          0.23799      0.89954      0.27349  1.0000
  O2          0.59783      0.56336      0.98851  1.0000
  O2          0.44994      0.02423      0.32893  1.0000
  O2          0.98554      0.41663      0.65901  1.0000
  O2          0.42047      0.44170      0.49230  1.0000
  O2          0.57093      0.96995      0.82220  1.0000
  O3          0.01903      0.55945      0.16183  1.0000
  O2          0.56815      0.58441      0.34483  1.0000
  O1          0.04820      0.43222      0.00687  1.0000
  O2          0.42758      0.97586      0.67423  1.0000
  O2          0.44760      0.40740      0.84283  1.0000
  O2          0.97805      0.55887      0.51163  1.0000
  O2          0.60041      0.03536      0.18106  1.0000
  O2          0.59020      0.16313      0.25668  1.0000
  O2          0.84505      0.41902      0.58610  1.0000
  O2          0.58578      0.41462      0.91671  1.0000
  O2          0.43046      0.83704      0.74718  1.0000
  O1          0.18573      0.60605      0.08259  1.0000
  O2          0.42484      0.57981      0.41820  1.0000
  F           0.45875      0.90139      0.25320  1.0000
  F           0.10672      0.54930      0.58427  1.0000
  F           0.46052      0.55131      0.91477  1.0000
  F           0.56091      0.09718      0.74922  1.0000
  F           0.90677      0.41871      0.07765  1.0000
  F           0.55665      0.45096      0.41852  1.0000
