data_cif

_audit_creation_method             'generated by GULP'

_symmetry_space_group_name_H-M     'P 1'
_symmetry_Int_Tables_number        1
_symmetry_cell_setting             triclinic

_cell_length_a                       12.0301
_cell_length_b                       12.0401
_cell_length_c                       29.5180
_cell_angle_alpha                   89.9674
_cell_angle_beta                    90.0144
_cell_angle_gamma                  119.9481

loop_
_atom_site_label
_atom_site_fract_x
_atom_site_fract_y
_atom_site_fract_z
_atom_site_occupancy
  Ge          0.69960      0.37570      0.03389  1.0000
  Ge          0.57908      0.29194      0.36547  1.0000
  Ge          0.66236      0.25131      0.69755  1.0000
  Ge          0.26141      0.57089      0.53245  1.0000
  Ge          0.38158      0.65675      0.86538  1.0000
  Ge          0.29979      0.69473      0.19914  1.0000
  Si          0.33554      0.65370      0.29666  1.0000
  Si          0.30582      0.61881      0.96358  1.0000
  Si          0.29902      0.64565      0.63015  1.0000
  Si          0.63113      0.29575      0.79501  1.0000
  Si          0.65571      0.32779      0.46287  1.0000
  Si          0.66241      0.30024      0.13139  1.0000
  Si          0.52319      0.41247      0.96699  1.0000
  Si          0.54062      0.07670      0.29919  1.0000
  Si          0.87652      0.42819      0.63077  1.0000
  Si          0.43711      0.53261      0.46524  1.0000
  Si          0.42088      0.87246      0.79886  1.0000
  Si          0.08586      0.51876      0.13192  1.0000
  Si          0.38197      0.48464      0.36178  1.0000
  Si          0.08996      0.57273      0.02849  1.0000
  Si          0.46675      0.86130      0.69538  1.0000
  Ge          0.57585      0.46014      0.86183  1.0000
  Si          0.87203      0.37411      0.52736  1.0000
  Si          0.49248      0.08416      0.19580  1.0000
  Si          0.28808      0.38486      0.84199  1.0000
  Si          0.57042      0.87706      0.17642  1.0000
  Si          0.07945      0.65932      0.50887  1.0000
  Si          0.66737      0.56230      0.34270  1.0000
  Si          0.39109      0.07013      0.67602  1.0000
  Si          0.88166      0.28764      0.01012  1.0000
  Si          0.37168      0.24829      0.47491  1.0000
  Si          0.86687      0.58428      0.14226  1.0000
  Si          0.70651      0.08832      0.80733  1.0000
  Si          0.58953      0.69840      0.97568  1.0000
  Si          0.09440      0.36158      0.64146  1.0000
  Si          0.25646      0.85845      0.30882  1.0000
  Si          0.24342      0.33763      0.94579  1.0000
  Si          0.61698      0.87360      0.27954  1.0000
  Si          0.07971      0.70783      0.61201  1.0000
  Si          0.71701      0.60906      0.44583  1.0000
  Si          0.34749      0.07871      0.77924  1.0000
  Si          0.88214      0.23902      0.11330  1.0000
  Si          0.29860      0.19992      0.37273  1.0000
  Si          0.88859      0.65619      0.03999  1.0000
  Si          0.75224      0.06113      0.70532  1.0000
  Si          0.66266      0.74936      0.87327  1.0000
  Si          0.07302      0.29048      0.53915  1.0000
  Si          0.20784      0.88322      0.20665  1.0000
  Si          0.96835      0.11953      0.96091  1.0000
  Si          0.83610      0.81746      0.29410  1.0000
  Si          0.13590      0.98302      0.62703  1.0000
  Si          0.99242      0.82798      0.46052  1.0000
  Si          0.12343      0.13034      0.79367  1.0000
  Si          0.82560      0.96362      0.12747  1.0000
  Si          0.07593      0.92672      0.35978  1.0000
  Si          0.83838      0.87927      0.02655  1.0000
  Si          0.02554      0.11249      0.69261  1.0000
  Si          0.88658      0.02285      0.85979  1.0000
  Si          0.12325      0.06765      0.52611  1.0000
  Si          0.93468      0.83283      0.19328  1.0000
  O2          0.92137      0.99822      0.99365  1.0000
  O2          0.95600      0.89043      0.32739  1.0000
  O2          0.06229      0.02876      0.66052  1.0000
  O2          0.03908      0.94723      0.49408  1.0000
  O2          0.00548      0.05307      0.82757  1.0000
  O2          0.89862      0.91616      0.16060  1.0000
  O2          0.30663      0.54112      0.33294  1.0000
  O2          0.40977      0.72876      0.66707  1.0000
  O2          0.22108      0.64783      0.99929  1.0000
  O3          0.66243      0.40692      0.83060  1.0000
  O2          0.54998      0.21699      0.16771  1.0000
  O2          0.74007      0.29861      0.49875  1.0000
  O3          0.56096      0.33777      0.00102  1.0000
  O3          0.75828      0.38578      0.66207  1.0000
  O3          0.61700      0.19401      0.33087  1.0000
  O3          0.39660      0.60862      0.49739  1.0000
  O3          0.20330      0.56033      0.16368  1.0000
  O3          0.34412      0.75602      0.83095  1.0000
  O2          0.12073      0.21223      0.96740  1.0000
  O2          0.74327      0.87697      0.30061  1.0000
  O2          0.07592      0.83057      0.63295  1.0000
  O2          0.84002      0.73520      0.46684  1.0000
  O2          0.22238      0.07798      0.80028  1.0000
  O2          0.88617      0.11601      0.13396  1.0000
  O2          0.16153      0.08040      0.35686  1.0000
  O2          0.90627      0.79327      0.02396  1.0000
  O2          0.87175      0.04355      0.68924  1.0000
  O2          0.79889      0.87019      0.85799  1.0000
  O2          0.05543      0.15358      0.52311  1.0000
  O2          0.08853      0.90133      0.19077  1.0000
  O2          0.88798      0.83842      0.24334  1.0000
  O2          0.11710      0.01652      0.57640  1.0000
  O2          0.93815      0.07083      0.90986  1.0000
  O2          0.07041      0.10625      0.74299  1.0000
  O2          0.84521      0.93220      0.07660  1.0000
  O2          0.02402      0.88119      0.40995  1.0000
  O2          0.89684      0.19853      0.97245  1.0000
  O2          0.75606      0.66674      0.30494  1.0000
  O2          0.28621      0.05364      0.63839  1.0000
  O2          0.06353      0.74803      0.47113  1.0000
  O2          0.19399      0.28089      0.80485  1.0000
  O2          0.67500      0.89348      0.13859  1.0000
  O2          0.15806      0.85889      0.34637  1.0000
  O2          0.68834      0.79636      0.01332  1.0000
  O2          0.09299      0.26223      0.67904  1.0000
  O2          0.80620      0.09135      0.84505  1.0000
  O2          0.27301      0.14961      0.51245  1.0000
  O2          0.86800      0.68323      0.17983  1.0000
  O3          0.28266      0.59576      0.24797  1.0000
  O3          0.35883      0.65168      0.58171  1.0000
  O3          0.30215      0.67188      0.91475  1.0000
  O3          0.68110      0.35155      0.74572  1.0000
  O3          0.60271      0.29361      0.08299  1.0000
  O3          0.66114      0.27512      0.41425  1.0000
  O2          0.36684      0.33174      0.96257  1.0000
  O2          0.62224      0.00187      0.29717  1.0000
  O2          0.95101      0.58453      0.62925  1.0000
  O2          0.59357      0.61419      0.46323  1.0000
  O2          0.34151      0.94978      0.79691  1.0000
  O2          0.01133      0.36239      0.13018  1.0000
  O2          0.29686      0.32970      0.35752  1.0000
  O2          0.01992      0.65780      0.02446  1.0000
  O2          0.62167      0.93035      0.69036  1.0000
  O3          0.66939      0.62545      0.85731  1.0000
  O2          0.94214      0.28912      0.52326  1.0000
  O2          0.33750      0.01435      0.19120  1.0000
  O3          0.75150      0.28527      0.00000  1.0000
  O3          0.66999      0.43502      0.33215  1.0000
  O3          0.51868      0.19851      0.66451  1.0000
  O3          0.20997      0.66249      0.49897  1.0000
  O3          0.28755      0.51415      0.83252  1.0000
  O3          0.44321      0.74724      0.16587  1.0000
  O2          0.25762      0.72517      0.31494  1.0000
  O2          0.45457      0.69626      0.98204  1.0000
  O2          0.22731      0.49608      0.64816  1.0000
  O2          0.70757      0.22232      0.81265  1.0000
  O2          0.50640      0.24990      0.48123  1.0000
  O2          0.73412      0.44992      0.14922  1.0000
  O3          0.76491      0.54322      0.01774  1.0000
  O3          0.41132      0.18937      0.35003  1.0000
  O3          0.76389      0.18481      0.68256  1.0000
  O3          0.19719      0.40331      0.51706  1.0000
  O3          0.54852      0.75960      0.85087  1.0000
  O3          0.19671      0.75967      0.18405  1.0000
  O2          0.49125      0.74761      0.29801  1.0000
  O2          0.24459      0.46364      0.96477  1.0000
  O2          0.20508      0.70750      0.63096  1.0000
  O2          0.47406      0.20409      0.79773  1.0000
  O2          0.71714      0.48338      0.46447  1.0000
  O2          0.75716      0.23923      0.13274  1.0000
  O2          0.22660      0.32332      0.89148  1.0000
  O2          0.63253      0.87304      0.22515  1.0000
  O2          0.08155      0.72438      0.55763  1.0000
  O2          0.73331      0.62425      0.39143  1.0000
  O2          0.33146      0.07812      0.72482  1.0000
  O2          0.87879      0.22232      0.05889  1.0000
  O2          0.29988      0.18575      0.42774  1.0000
  O2          0.87428      0.65538      0.09505  1.0000
  O2          0.76710      0.07518      0.76028  1.0000
  O2          0.65982      0.76090      0.92847  1.0000
  O2          0.08635      0.29058      0.59423  1.0000
  O2          0.19419      0.86846      0.26166  1.0000
  O2          0.56624      0.55703      0.98363  1.0000
  O2          0.39770      0.97635      0.31756  1.0000
  O2          0.97609      0.38485      0.64953  1.0000
  O2          0.39428      0.38939      0.48332  1.0000
  O2          0.56495      0.97138      0.81670  1.0000
  O2          0.98576      0.56183      0.15021  1.0000
  O2          0.52256      0.54070      0.33921  1.0000
  O2          0.00489      0.43210      0.00618  1.0000
  O2          0.41018      0.94542      0.67292  1.0000
  O3          0.42815      0.39961      0.83595  1.0000
  O2          0.95686      0.51454      0.50480  1.0000
  O2          0.54870      0.00012      0.17296  1.0000
  O2          0.53351      0.12144      0.24776  1.0000
  O2          0.83326      0.37766      0.57916  1.0000
  O3          0.57738      0.41470      0.91676  1.0000
  O2          0.42621      0.82519      0.74753  1.0000
  O2          0.12979      0.56961      0.08026  1.0000
  O2          0.38544      0.52637      0.41373  1.0000
  F           0.38822      0.83548      0.23577  1.0000
  F           0.11941      0.51784      0.56847  1.0000
  F           0.43606      0.56383      0.90051  1.0000
  F           0.57351      0.11124      0.73479  1.0000
  F           0.84194      0.42893      0.06974  1.0000
  F           0.52637      0.38022      0.40203  1.0000
