data_cif

_audit_creation_method             'generated by GULP'

_symmetry_space_group_name_H-M     'P 1'
_symmetry_Int_Tables_number        1
_symmetry_cell_setting             triclinic

_cell_length_a                       12.0601
_cell_length_b                       12.0605
_cell_length_c                       29.5895
_cell_angle_alpha                   90.3344
_cell_angle_beta                    88.7181
_cell_angle_gamma                  120.2956

loop_
_atom_site_label
_atom_site_fract_x
_atom_site_fract_y
_atom_site_fract_z
_atom_site_occupancy
  Ge          0.69960      0.37570      0.03389  1.0000
  Ge          0.59319      0.31035      0.36993  1.0000
  Ge          0.65678      0.26426      0.70362  1.0000
  Ge          0.26482      0.58708      0.53540  1.0000
  Si          0.36544      0.66628      0.86699  1.0000
  Ge          0.32072      0.71006      0.20618  1.0000
  Si          0.35381      0.67335      0.30354  1.0000
  Si          0.30985      0.60897      0.97007  1.0000
  Si          0.29856      0.66200      0.63257  1.0000
  Si          0.61960      0.30982      0.80116  1.0000
  Si          0.66418      0.34409      0.46708  1.0000
  Si          0.69836      0.31750      0.13715  1.0000
  Si          0.52129      0.40080      0.96801  1.0000
  Si          0.56066      0.09645      0.30383  1.0000
  Si          0.87401      0.44071      0.63494  1.0000
  Si          0.44633      0.54881      0.47013  1.0000
  Ge          0.41406      0.88671      0.80303  1.0000
  Si          0.11942      0.53251      0.13787  1.0000
  Si          0.39691      0.50248      0.36701  1.0000
  Ge          0.08894      0.56281      0.03802  1.0000
  Si          0.46351      0.87488      0.69819  1.0000
  Ge          0.55858      0.46996      0.86953  1.0000
  Si          0.87577      0.38866      0.53157  1.0000
  Si          0.51734      0.10020      0.20059  1.0000
  Si          0.28729      0.38644      0.84694  1.0000
  Si          0.59316      0.89171      0.18286  1.0000
  Si          0.08441      0.67520      0.51265  1.0000
  Si          0.68298      0.58133      0.34717  1.0000
  Si          0.38655      0.08300      0.68094  1.0000
  Si          0.89989      0.29098      0.01420  1.0000
  Si          0.37978      0.26468      0.47951  1.0000
  Si          0.90134      0.60055      0.14858  1.0000
  Si          0.70150      0.10641      0.81337  1.0000
  Si          0.59320      0.68702      0.98056  1.0000
  Si          0.09314      0.37702      0.64424  1.0000
  Si          0.27483      0.87781      0.31417  1.0000
  Si          0.24320      0.32744      0.94999  1.0000
  Si          0.63693      0.89303      0.28569  1.0000
  Si          0.07909      0.72202      0.61566  1.0000
  Si          0.72677      0.62572      0.45011  1.0000
  Si          0.33478      0.08938      0.78424  1.0000
  Si          0.91453      0.25220      0.11740  1.0000
  Si          0.31239      0.21771      0.37757  1.0000
  Si          0.91187      0.66512      0.04626  1.0000
  Si          0.74839      0.07653      0.71088  1.0000
  Si          0.65342      0.74860      0.87821  1.0000
  Si          0.07615      0.30566      0.54233  1.0000
  Si          0.23112      0.90061      0.21207  1.0000
  Si          0.96239      0.11006      0.96345  1.0000
  Si          0.85502      0.83675      0.29779  1.0000
  Si          0.13472      0.99730      0.63129  1.0000
  Si          0.00111      0.84477      0.46464  1.0000
  Si          0.11189      0.14447      0.79706  1.0000
  Si          0.84692      0.97250      0.13081  1.0000
  Si          0.09027      0.94462      0.36399  1.0000
  Si          0.83891      0.87321      0.03031  1.0000
  Si          0.02246      0.12831      0.69598  1.0000
  Si          0.87236      0.03226      0.86256  1.0000
  Si          0.12790      0.08336      0.53050  1.0000
  Si          0.95903      0.84881      0.19726  1.0000
  O2          0.91699      0.98386      0.99342  1.0000
  O2          0.97539      0.90857      0.33011  1.0000
  O2          0.05779      0.04179      0.66438  1.0000
  O2          0.04658      0.96332      0.49830  1.0000
  O2          0.98698      0.05715      0.82797  1.0000
  O2          0.92288      0.92347      0.16104  1.0000
  O2          0.32239      0.56004      0.33962  1.0000
  O2          0.40980      0.74542      0.66848  1.0000
  O3          0.22982      0.64580      0.00177  1.0000
  O3          0.64803      0.41933      0.83548  1.0000
  O2          0.57866      0.23227      0.17125  1.0000
  O2          0.74553      0.31392      0.50287  1.0000
  O3          0.56076      0.32993      0.00447  1.0000
  O3          0.75496      0.39761      0.66655  1.0000
  O3          0.63435      0.21477      0.33490  1.0000
  O3          0.40385      0.62523      0.50153  1.0000
  O3          0.22673      0.57118      0.17341  1.0000
  O3          0.32857      0.75457      0.83817  1.0000
  O2          0.11496      0.20226      0.97009  1.0000
  O2          0.76317      0.89682      0.30575  1.0000
  O2          0.07428      0.84441      0.63665  1.0000
  O2          0.84836      0.75152      0.47136  1.0000
  O2          0.21186      0.09506      0.80459  1.0000
  O2          0.91283      0.12582      0.13723  1.0000
  O2          0.17581      0.09868      0.36158  1.0000
  O2          0.90791      0.78983      0.02921  1.0000
  O2          0.86860      0.05970      0.69448  1.0000
  O2          0.76980      0.88259      0.85902  1.0000
  O2          0.06019      0.16875      0.52700  1.0000
  O2          0.11365      0.92027      0.19611  1.0000
  O2          0.90535      0.85775      0.24625  1.0000
  O2          0.11942      0.03231      0.58079  1.0000
  O2          0.93068      0.06959      0.91185  1.0000
  O2          0.07030      0.12742      0.74570  1.0000
  O2          0.85224      0.93716      0.07893  1.0000
  O2          0.03304      0.89764      0.41388  1.0000
  O2          0.88622      0.18189      0.97856  1.0000
  O2          0.77370      0.68588      0.30907  1.0000
  O2          0.28403      0.06792      0.64346  1.0000
  O2          0.07113      0.76457      0.47499  1.0000
  O2          0.17783      0.29389      0.81114  1.0000
  O2          0.69850      0.90505      0.14541  1.0000
  O2          0.17483      0.87872      0.35157  1.0000
  O2          0.68874      0.78409      0.01876  1.0000
  O2          0.09092      0.27750      0.68142  1.0000
  O2          0.80389      0.11365      0.85016  1.0000
  O2          0.27877      0.16554      0.51706  1.0000
  O2          0.89890      0.69807      0.18613  1.0000
  O3          0.30292      0.61367      0.25548  1.0000
  O3          0.36031      0.66896      0.58415  1.0000
  O2          0.31491      0.65806      0.91831  1.0000
  O3          0.66946      0.36203      0.75071  1.0000
  O3          0.64556      0.31625      0.08815  1.0000
  O3          0.67197      0.29237      0.41843  1.0000
  O2          0.36371      0.31615      0.96689  1.0000
  O2          0.64265      0.02235      0.30251  1.0000
  O2          0.94972      0.59769      0.63311  1.0000
  O2          0.60299      0.63062      0.46787  1.0000
  O3          0.31980      0.95712      0.80197  1.0000
  O2          0.04427      0.37412      0.13430  1.0000
  O2          0.31221      0.34751      0.36215  1.0000
  O3          0.04198      0.67925      0.02698  1.0000
  O2          0.61923      0.94715      0.69422  1.0000
  O3          0.67131      0.63729      0.85784  1.0000
  O2          0.94537      0.30345      0.52717  1.0000
  O2          0.36277      0.03184      0.19615  1.0000
  O3          0.76873      0.29398      0.00929  1.0000
  O3          0.68568      0.45421      0.33654  1.0000
  O3          0.51590      0.21147      0.67008  1.0000
  O3          0.21548      0.67908      0.50230  1.0000
  O2          0.29521      0.52534      0.84392  1.0000
  O3          0.46583      0.76223      0.17278  1.0000
  O2          0.27492      0.74468      0.32127  1.0000
  O2          0.45803      0.68168      0.98727  1.0000
  O2          0.22564      0.51223      0.65092  1.0000
  O2          0.70061      0.23895      0.81654  1.0000
  O2          0.51359      0.26568      0.48541  1.0000
  O2          0.76855      0.46451      0.15514  1.0000
  O3          0.78595      0.54023      0.02740  1.0000
  O3          0.42609      0.20703      0.35495  1.0000
  O3          0.76285      0.20231      0.68947  1.0000
  O3          0.20058      0.41953      0.51961  1.0000
  O2          0.52118      0.74041      0.86149  1.0000
  O3          0.22068      0.77673      0.19015  1.0000
  O2          0.50973      0.76819      0.30516  1.0000
  O2          0.25259      0.45486      0.97048  1.0000
  O2          0.20417      0.72285      0.63419  1.0000
  O2          0.46429      0.20650      0.80359  1.0000
  O2          0.72599      0.49984      0.46845  1.0000
  O2          0.79129      0.25720      0.13729  1.0000
  O2          0.22783      0.31713      0.89588  1.0000
  O2          0.65326      0.89007      0.23146  1.0000
  O2          0.08401      0.73935      0.56136  1.0000
  O2          0.74643      0.64262      0.39578  1.0000
  O2          0.32378      0.08810      0.72980  1.0000
  O2          0.90783      0.23433      0.06345  1.0000
  O2          0.31003      0.20318      0.43247  1.0000
  O2          0.90505      0.66818      0.10135  1.0000
  O2          0.75607      0.08383      0.76590  1.0000
  O2          0.66315      0.75496      0.93315  1.0000
  O2          0.08809      0.30667      0.59718  1.0000
  O2          0.21466      0.88674      0.26702  1.0000
  O2          0.57527      0.54662      0.98773  1.0000
  O2          0.41621      0.99617      0.32218  1.0000
  O2          0.97372      0.39812      0.65273  1.0000
  O2          0.40277      0.40566      0.48852  1.0000
  O3          0.56179      0.98755      0.82560  1.0000
  O2          0.01900      0.57801      0.15599  1.0000
  O2          0.53861      0.55995      0.34396  1.0000
  O3          0.02612      0.42279      0.00259  1.0000
  O2          0.40498      0.95806      0.67761  1.0000
  O3          0.41837      0.39367      0.83422  1.0000
  O2          0.96209      0.52974      0.50891  1.0000
  O2          0.57423      0.01602      0.17824  1.0000
  O2          0.55701      0.13992      0.25209  1.0000
  O2          0.83384      0.39105      0.58328  1.0000
  O3          0.58112      0.39995      0.91980  1.0000
  O3          0.41982      0.83134      0.74964  1.0000
  O3          0.17507      0.58688      0.08808  1.0000
  O2          0.39748      0.54200      0.41889  1.0000
  F           0.40887      0.85306      0.24181  1.0000
  F           0.12135      0.53284      0.57175  1.0000
  F           0.46545      0.52163      0.90597  1.0000
  F           0.56456      0.11900      0.73973  1.0000
  F           0.93229      0.46870      0.07191  1.0000
  F           0.53878      0.39805      0.40653  1.0000
