data_cif

_audit_creation_method             'generated by GULP'

_symmetry_space_group_name_H-M     'P 1'
_symmetry_Int_Tables_number        1
_symmetry_cell_setting             triclinic

_cell_length_a                       12.0515
_cell_length_b                       12.0259
_cell_length_c                       29.6165
_cell_angle_alpha                   90.9022
_cell_angle_beta                    88.4749
_cell_angle_gamma                  119.9994

loop_
_atom_site_label
_atom_site_fract_x
_atom_site_fract_y
_atom_site_fract_z
_atom_site_occupancy
  Si          0.69960      0.37570      0.03389  1.0000
  Ge          0.60371      0.32930      0.36761  1.0000
  Ge          0.67106      0.28796      0.69639  1.0000
  Ge          0.27764      0.60890      0.53628  1.0000
  Si          0.37116      0.67133      0.86761  1.0000
  Ge          0.33163      0.72349      0.20424  1.0000
  Si          0.36597      0.69128      0.30172  1.0000
  Si          0.31238      0.61640      0.97006  1.0000
  Si          0.30949      0.68339      0.63428  1.0000
  Si          0.61288      0.29987      0.79992  1.0000
  Si          0.67599      0.36424      0.46450  1.0000
  Si          0.70943      0.33057      0.13599  1.0000
  Ge          0.52657      0.41064      0.96905  1.0000
  Si          0.57060      0.11446      0.30088  1.0000
  Si          0.88860      0.46870      0.63069  1.0000
  Si          0.45891      0.57096      0.46937  1.0000
  Si          0.40359      0.87772      0.80299  1.0000
  Si          0.12957      0.54650      0.13592  1.0000
  Si          0.40887      0.52306      0.36618  1.0000
  Ge          0.09013      0.56916      0.03726  1.0000
  Ge          0.46855      0.90043      0.70313  1.0000
  Ge          0.56442      0.46895      0.86949  1.0000
  Si          0.89015      0.41266      0.52796  1.0000
  Si          0.52574      0.11364      0.19779  1.0000
  Si          0.29133      0.38963      0.84849  1.0000
  Si          0.60300      0.90453      0.18050  1.0000
  Si          0.09941      0.69823      0.51094  1.0000
  Si          0.69432      0.60081      0.34589  1.0000
  Si          0.38625      0.08859      0.67864  1.0000
  Si          0.90270      0.29738      0.01405  1.0000
  Si          0.39258      0.28595      0.47780  1.0000
  Si          0.90893      0.61249      0.14706  1.0000
  Si          0.68883      0.09271      0.81273  1.0000
  Si          0.59595      0.69875      0.98230  1.0000
  Si          0.09998      0.39690      0.64336  1.0000
  Si          0.28608      0.89635      0.31177  1.0000
  Si          0.24482      0.33159      0.95139  1.0000
  Si          0.64769      0.91009      0.28322  1.0000
  Si          0.09332      0.74796      0.61399  1.0000
  Si          0.73885      0.64654      0.44876  1.0000
  Si          0.32951      0.08131      0.78242  1.0000
  Si          0.92487      0.26485      0.11660  1.0000
  Si          0.32352      0.23759      0.37609  1.0000
  Si          0.90670      0.66462      0.04472  1.0000
  Si          0.74831      0.07743      0.71075  1.0000
  Si          0.65819      0.74853      0.87977  1.0000
  Si          0.08842      0.32772      0.54134  1.0000
  Si          0.24099      0.91442      0.20976  1.0000
  Si          0.96169      0.11509      0.96243  1.0000
  Si          0.86629      0.85488      0.29642  1.0000
  Si          0.14484      0.02344      0.62901  1.0000
  Si          0.01384      0.86506      0.46261  1.0000
  Si          0.11376      0.14819      0.79638  1.0000
  Si          0.85757      0.98542      0.12939  1.0000
  Si          0.10166      0.96444      0.36223  1.0000
  Si          0.84141      0.88147      0.02916  1.0000
  Si          0.03165      0.15058      0.69535  1.0000
  Si          0.87063      0.03110      0.86170  1.0000
  Si          0.14066      0.10562      0.52802  1.0000
  Si          0.96886      0.86258      0.19590  1.0000
  O2          0.92149      0.98859      0.99146  1.0000
  O2          0.98639      0.92867      0.32868  1.0000
  O2          0.06382      0.06544      0.66131  1.0000
  O2          0.05930      0.98570      0.49566  1.0000
  O2          0.98414      0.06311      0.82533  1.0000
  O2          0.93226      0.93699      0.16017  1.0000
  O2          0.33490      0.58056      0.33855  1.0000
  O3          0.41255      0.75725      0.67082  1.0000
  O3          0.22879      0.65216      0.00064  1.0000
  O3          0.64719      0.41575      0.83172  1.0000
  O2          0.58580      0.24420      0.16794  1.0000
  O2          0.75978      0.33583      0.49973  1.0000
  O3          0.57104      0.33243      0.00788  1.0000
  O3          0.76476      0.42111      0.66193  1.0000
  O3          0.64443      0.23368      0.33186  1.0000
  O3          0.41586      0.64631      0.50138  1.0000
  O3          0.23632      0.58431      0.17168  1.0000
  O2          0.33335      0.76184      0.83953  1.0000
  O2          0.11230      0.21037      0.97010  1.0000
  O2          0.77417      0.91548      0.30362  1.0000
  O2          0.08879      0.87115      0.63500  1.0000
  O2          0.86170      0.77155      0.46987  1.0000
  O2          0.20642      0.08816      0.80286  1.0000
  O2          0.92349      0.13867      0.13629  1.0000
  O2          0.18655      0.11858      0.36053  1.0000
  O2          0.89326      0.78231      0.02592  1.0000
  O2          0.87940      0.08313      0.69416  1.0000
  O2          0.77720      0.87897      0.85969  1.0000
  O2          0.07305      0.19137      0.52480  1.0000
  O2          0.12299      0.93317      0.19395  1.0000
  O2          0.91719      0.87318      0.24511  1.0000
  O2          0.13074      0.05432      0.57812  1.0000
  O2          0.93260      0.07723      0.91026  1.0000
  O2          0.08043      0.14434      0.74442  1.0000
  O2          0.86761      0.94921      0.07772  1.0000
  O2          0.04409      0.91557      0.41179  1.0000
  O2          0.88191      0.18388      0.97852  1.0000
  O2          0.78519      0.70463      0.30808  1.0000
  O2          0.29318      0.10098      0.64265  1.0000
  O2          0.08645      0.78731      0.47331  1.0000
  O2          0.18354      0.29591      0.81264  1.0000
  O2          0.70861      0.91807      0.14294  1.0000
  O2          0.18661      0.89873      0.34922  1.0000
  O2          0.68981      0.80460      0.01914  1.0000
  O2          0.09716      0.29984      0.68159  1.0000
  O2          0.78748      0.09878      0.85052  1.0000
  O2          0.29165      0.18713      0.51515  1.0000
  O2          0.90736      0.71160      0.18451  1.0000
  O3          0.31509      0.62933      0.25381  1.0000
  O3          0.36937      0.68842      0.58482  1.0000
  O2          0.31549      0.66146      0.91809  1.0000
  O3          0.66777      0.34708      0.74914  1.0000
  O2          0.66018      0.32969      0.08589  1.0000
  O3          0.68278      0.31096      0.41589  1.0000
  O3          0.35875      0.31308      0.96886  1.0000
  O2          0.65274      0.04012      0.29958  1.0000
  O2          0.96093      0.62402      0.63077  1.0000
  O2          0.61560      0.65230      0.46706  1.0000
  O2          0.32028      0.95185      0.80253  1.0000
  O2          0.05500      0.38731      0.13270  1.0000
  O2          0.32352      0.36797      0.36136  1.0000
  O3          0.03686      0.68115      0.02477  1.0000
  O3          0.63348      0.94721      0.69255  1.0000
  O3          0.67437      0.63512      0.85906  1.0000
  O2          0.95990      0.32724      0.52434  1.0000
  O2          0.37154      0.04535      0.19363  1.0000
  O2          0.77133      0.30426      0.01130  1.0000
  O3          0.69692      0.47317      0.33492  1.0000
  O3          0.52082      0.22013      0.67302  1.0000
  O3          0.22983      0.70045      0.50187  1.0000
  O2          0.30220      0.52988      0.84443  1.0000
  O3          0.47646      0.77433      0.17078  1.0000
  O2          0.28705      0.76366      0.31915  1.0000
  O2          0.46062      0.69439      0.98659  1.0000
  O2          0.23104      0.53012      0.64953  1.0000
  O2          0.68426      0.22333      0.81714  1.0000
  O2          0.52645      0.28649      0.48357  1.0000
  O2          0.77771      0.47623      0.15517  1.0000
  O2          0.78286      0.53100      0.02802  1.0000
  O3          0.43667      0.22638      0.35290  1.0000
  O3          0.75004      0.20218      0.69035  1.0000
  O3          0.21561      0.44088      0.52066  1.0000
  O2          0.52553      0.73894      0.86383  1.0000
  O3          0.23133      0.79001      0.18807  1.0000
  O2          0.52154      0.78599      0.30298  1.0000
  O2          0.26262      0.46362      0.97215  1.0000
  O2          0.21241      0.74263      0.63390  1.0000
  O2          0.45871      0.20327      0.79926  1.0000
  O2          0.73767      0.51996      0.46644  1.0000
  O2          0.80220      0.27020      0.13750  1.0000
  O2          0.23080      0.32307      0.89714  1.0000
  O2          0.66379      0.90462      0.22905  1.0000
  O2          0.09752      0.76301      0.55976  1.0000
  O2          0.75742      0.66278      0.39450  1.0000
  O2          0.31755      0.07767      0.72831  1.0000
  O2          0.91453      0.24235      0.06277  1.0000
  O2          0.32258      0.22347      0.43086  1.0000
  O2          0.90714      0.67604      0.09966  1.0000
  O2          0.75436      0.08437      0.76569  1.0000
  O2          0.66897      0.75825      0.93434  1.0000
  O2          0.09185      0.32367      0.59640  1.0000
  O2          0.22520      0.90307      0.26470  1.0000
  O3          0.58092      0.56268      0.99300  1.0000
  O2          0.42685      0.01529      0.31948  1.0000
  O2          0.97829      0.41757      0.65124  1.0000
  O2          0.41594      0.42736      0.48694  1.0000
  O2          0.54792      0.97102      0.82160  1.0000
  O2          0.02873      0.59296      0.15399  1.0000
  O2          0.54990      0.57917      0.34287  1.0000
  O3          0.02749      0.42693      0.00130  1.0000
  O3          0.39517      0.96410      0.66752  1.0000
  O3          0.42209      0.39461      0.83636  1.0000
  O2          0.97600      0.55363      0.50607  1.0000
  O2          0.58276      0.02832      0.17580  1.0000
  O2          0.56607      0.15610      0.24915  1.0000
  O2          0.84673      0.41664      0.57975  1.0000
  O1          0.59072      0.40205      0.91811  1.0000
  O3          0.39982      0.81673      0.75495  1.0000
  O3          0.18438      0.59979      0.08630  1.0000
  O2          0.41054      0.56429      0.41806  1.0000
  F           0.41944      0.86797      0.23954  1.0000
  F           0.12952      0.55379      0.57034  1.0000
  F           0.47190      0.52016      0.91002  1.0000
  F           0.52870      0.05603      0.73662  1.0000
  F           0.94396      0.47795      0.07283  1.0000
  F           0.55008      0.41761      0.40485  1.0000
