data_cif

_audit_creation_method             'generated by GULP'

_symmetry_space_group_name_H-M     'P 1'
_symmetry_Int_Tables_number        1
_symmetry_cell_setting             triclinic

_cell_length_a                       12.0535
_cell_length_b                       12.0486
_cell_length_c                       29.5678
_cell_angle_alpha                   89.7297
_cell_angle_beta                    89.5342
_cell_angle_gamma                  120.0936

loop_
_atom_site_label
_atom_site_fract_x
_atom_site_fract_y
_atom_site_fract_z
_atom_site_occupancy
  Ge          0.69960      0.37570      0.03389  1.0000
  Ge          0.59650      0.30528      0.37067  1.0000
  Ge          0.66854      0.25215      0.70196  1.0000
  Ge          0.27604      0.57926      0.53864  1.0000
  Ge          0.38365      0.65627      0.87246  1.0000
  Ge          0.31923      0.70363      0.20831  1.0000
  Si          0.35748      0.67020      0.30596  1.0000
  Si          0.30633      0.61664      0.97136  1.0000
  Si          0.30661      0.64961      0.63629  1.0000
  Si          0.63565      0.29674      0.79911  1.0000
  Si          0.67248      0.33589      0.46762  1.0000
  Si          0.69325      0.31262      0.13711  1.0000
  Si          0.51879      0.40754      0.96910  1.0000
  Si          0.56230      0.09324      0.30376  1.0000
  Si          0.88455      0.43027      0.63478  1.0000
  Si          0.45568      0.54174      0.47325  1.0000
  Si          0.42373      0.87297      0.80509  1.0000
  Si          0.11395      0.52646      0.14096  1.0000
  Si          0.40166      0.49877      0.37003  1.0000
  Ge          0.08724      0.56151      0.04061  1.0000
  Si          0.47199      0.86291      0.70165  1.0000
  Ge          0.57591      0.45998      0.86446  1.0000
  Si          0.88744      0.38095      0.53152  1.0000
  Si          0.51393      0.09426      0.20048  1.0000
  Si          0.28897      0.38557      0.84702  1.0000
  Si          0.58964      0.88523      0.18390  1.0000
  Si          0.09563      0.66765      0.51391  1.0000
  Si          0.68642      0.57739      0.34923  1.0000
  Si          0.39706      0.07146      0.68156  1.0000
  Si          0.89928      0.29062      0.01500  1.0000
  Si          0.38923      0.25700      0.48147  1.0000
  Si          0.89573      0.59448      0.15023  1.0000
  Si          0.70972      0.08920      0.81240  1.0000
  Si          0.59189      0.69319      0.98094  1.0000
  Si          0.10188      0.36423      0.64625  1.0000
  Si          0.27780      0.87465      0.31512  1.0000
  Si          0.24088      0.33463      0.95080  1.0000
  Si          0.63860      0.88944      0.28678  1.0000
  Si          0.08843      0.71136      0.61697  1.0000
  Si          0.73488      0.61848      0.45217  1.0000
  Si          0.35167      0.07979      0.78464  1.0000
  Si          0.91017      0.24785      0.11856  1.0000
  Si          0.31652      0.21333      0.37963  1.0000
  Si          0.90928      0.66356      0.04784  1.0000
  Si          0.75771      0.06203      0.71068  1.0000
  Si          0.66460      0.74831      0.87859  1.0000
  Si          0.08796      0.29788      0.54398  1.0000
  Si          0.22908      0.89423      0.21286  1.0000
  Si          0.96546      0.11239      0.96529  1.0000
  Si          0.85723      0.83319      0.29956  1.0000
  Si          0.14351      0.98576      0.63243  1.0000
  Si          0.00985      0.83708      0.46597  1.0000
  Si          0.12771      0.13209      0.79849  1.0000
  Si          0.84254      0.96791      0.13252  1.0000
  Si          0.09455      0.94080      0.36553  1.0000
  Si          0.83825      0.87422      0.03182  1.0000
  Si          0.03132      0.11380      0.69771  1.0000
  Si          0.88831      0.02229      0.86408  1.0000
  Si          0.13843      0.07503      0.53164  1.0000
  Si          0.95602      0.84246      0.19884  1.0000
  O2          0.92084      0.98813      0.99654  1.0000
  O2          0.97870      0.90585      0.33169  1.0000
  O2          0.06818      0.03015      0.66569  1.0000
  O2          0.05671      0.95625      0.49913  1.0000
  O2          0.00742      0.05238      0.83171  1.0000
  O2          0.91888      0.91883      0.16317  1.0000
  O2          0.32723      0.55841      0.34292  1.0000
  O2          0.41456      0.73031      0.67375  1.0000
  O3          0.22989      0.64747      0.00688  1.0000
  O3          0.66505      0.40843      0.83406  1.0000
  O2          0.57315      0.22535      0.17036  1.0000
  O2          0.75729      0.30568      0.50251  1.0000
  O3          0.56222      0.33335      0.00270  1.0000
  O3          0.76447      0.38601      0.66566  1.0000
  O3          0.63649      0.21187      0.33449  1.0000
  O3          0.41513      0.61757      0.50533  1.0000
  O3          0.22114      0.56326      0.17695  1.0000
  O3          0.34751      0.75641      0.83733  1.0000
  O2          0.11711      0.20871      0.97229  1.0000
  O2          0.76613      0.89432      0.30681  1.0000
  O2          0.08264      0.83284      0.63781  1.0000
  O2          0.85788      0.74299      0.47337  1.0000
  O2          0.22702      0.08075      0.80552  1.0000
  O2          0.90719      0.12085      0.13894  1.0000
  O2          0.17900      0.09491      0.36400  1.0000
  O2          0.90486      0.78853      0.03083  1.0000
  O2          0.87750      0.04426      0.69502  1.0000
  O2          0.80047      0.86966      0.86256  1.0000
  O2          0.07219      0.16201      0.52789  1.0000
  O2          0.11021      0.91246      0.19679  1.0000
  O2          0.90621      0.85219      0.24811  1.0000
  O2          0.12744      0.02179      0.58190  1.0000
  O2          0.93964      0.07011      0.91382  1.0000
  O2          0.07770      0.10893      0.74770  1.0000
  O2          0.84963      0.93448      0.08079  1.0000
  O2          0.03799      0.88972      0.41509  1.0000
  O2          0.88718      0.18342      0.97890  1.0000
  O2          0.77586      0.68280      0.31135  1.0000
  O2          0.29302      0.05542      0.64415  1.0000
  O2          0.08202      0.75810      0.47617  1.0000
  O2          0.19552      0.28215      0.81003  1.0000
  O2          0.69403      0.89903      0.14644  1.0000
  O2          0.17975      0.87640      0.35257  1.0000
  O2          0.68844      0.78888      0.01926  1.0000
  O2          0.09831      0.26349      0.68367  1.0000
  O2          0.80881      0.09172      0.84979  1.0000
  O2          0.28941      0.15651      0.51887  1.0000
  O2          0.89340      0.69157      0.18767  1.0000
  O3          0.30523      0.60910      0.25812  1.0000
  O3          0.36976      0.65872      0.58816  1.0000
  O3          0.30547      0.66917      0.92133  1.0000
  O3          0.68735      0.35275      0.74980  1.0000
  O3          0.64202      0.31405      0.08758  1.0000
  O3          0.67724      0.28499      0.41872  1.0000
  O2          0.36363      0.32539      0.96723  1.0000
  O2          0.64460      0.01925      0.30275  1.0000
  O2          0.95874      0.58676      0.63353  1.0000
  O2          0.61212      0.62322      0.47065  1.0000
  O2          0.34500      0.95098      0.80300  1.0000
  O2          0.03902      0.36839      0.13658  1.0000
  O2          0.31618      0.34408      0.36483  1.0000
  O3          0.03916      0.67791      0.02932  1.0000
  O2          0.62694      0.93124      0.69632  1.0000
  O3          0.67020      0.62522      0.86069  1.0000
  O2          0.95793      0.29653      0.52768  1.0000
  O2          0.35928      0.02554      0.19646  1.0000
  O3          0.76773      0.29390      0.00933  1.0000
  O3          0.68825      0.45036      0.33787  1.0000
  O3          0.52504      0.19996      0.66959  1.0000
  O3          0.22695      0.67177      0.50470  1.0000
  O3          0.29021      0.51570      0.83855  1.0000
  O3          0.46244      0.75522      0.17445  1.0000
  O2          0.27895      0.74203      0.32300  1.0000
  O2          0.45871      0.69153      0.98673  1.0000
  O2          0.23387      0.49886      0.65363  1.0000
  O2          0.71122      0.22357      0.81742  1.0000
  O2          0.52325      0.25732      0.48665  1.0000
  O2          0.76260      0.45867      0.15575  1.0000
  O3          0.78351      0.54001      0.02790  1.0000
  O3          0.42879      0.20285      0.35624  1.0000
  O3          0.76998      0.18552      0.68732  1.0000
  O3          0.21315      0.41245      0.52248  1.0000
  O3          0.55106      0.76154      0.85806  1.0000
  O3          0.21859      0.77020      0.19152  1.0000
  O2          0.51316      0.76537      0.30714  1.0000
  O2          0.24793      0.46074      0.97080  1.0000
  O2          0.21230      0.71073      0.63665  1.0000
  O2          0.47856      0.20546      0.80230  1.0000
  O2          0.73442      0.49146      0.46962  1.0000
  O2          0.78622      0.25228      0.13731  1.0000
  O2          0.22697      0.32206      0.89656  1.0000
  O2          0.65188      0.88442      0.23254  1.0000
  O2          0.09443      0.73034      0.56265  1.0000
  O2          0.75172      0.63715      0.39784  1.0000
  O2          0.33648      0.07851      0.73032  1.0000
  O2          0.90568      0.23206      0.06445  1.0000
  O2          0.31723      0.19732      0.43445  1.0000
  O2          0.90062      0.66371      0.10293  1.0000
  O2          0.77134      0.07658      0.76545  1.0000
  O2          0.66565      0.75547      0.93387  1.0000
  O2          0.09763      0.29575      0.59903  1.0000
  O2          0.21508      0.88175      0.26790  1.0000
  O2          0.56965      0.55062      0.98852  1.0000
  O2          0.41897      0.99352      0.32245  1.0000
  O2          0.98274      0.38624      0.65380  1.0000
  O2          0.41314      0.39794      0.49104  1.0000
  O2          0.56788      0.97266      0.82218  1.0000
  O2          0.01241      0.57039      0.15870  1.0000
  O2          0.54200      0.55635      0.34652  1.0000
  O3          0.02457      0.42315      0.00448  1.0000
  O2          0.41655      0.94715      0.67868  1.0000
  O3          0.42827      0.39846      0.83964  1.0000
  O2          0.97360      0.52261      0.50934  1.0000
  O2          0.56988      0.00924      0.17872  1.0000
  O2          0.55621      0.13568      0.25181  1.0000
  O2          0.84496      0.38205      0.58305  1.0000
  O3          0.57510      0.41088      0.91959  1.0000
  O2          0.43002      0.82683      0.75375  1.0000
  O3          0.17025      0.58295      0.09162  1.0000
  O2          0.40463      0.53678      0.42211  1.0000
  F           0.40841      0.84772      0.24310  1.0000
  F           0.13147      0.52367      0.57372  1.0000
  F           0.43947      0.55958      0.90511  1.0000
  F           0.57889      0.11249      0.73983  1.0000
  F           0.92842      0.46562      0.07322  1.0000
  F           0.54430      0.39217      0.40814  1.0000
