data_cif

_audit_creation_method             'generated by GULP'

_symmetry_space_group_name_H-M     'P 1'
_symmetry_Int_Tables_number        1
_symmetry_cell_setting             triclinic

_cell_length_a                       12.0095
_cell_length_b                       12.0431
_cell_length_c                       29.6553
_cell_angle_alpha                   90.4738
_cell_angle_beta                    89.5098
_cell_angle_gamma                  119.9826

loop_
_atom_site_label
_atom_site_fract_x
_atom_site_fract_y
_atom_site_fract_z
_atom_site_occupancy
  Si          0.69960      0.37570      0.03389  1.0000
  Si          0.58560      0.29455      0.36380  1.0000
  Si          0.65896      0.28136      0.69937  1.0000
  Si          0.26177      0.58634      0.53012  1.0000
  Si          0.37156      0.67211      0.86224  1.0000
  Si          0.29782      0.69456      0.19511  1.0000
  Si          0.34184      0.68180      0.29758  1.0000
  Si          0.32154      0.61266      0.96442  1.0000
  Si          0.27047      0.64562      0.63277  1.0000
  Si          0.60801      0.28975      0.80230  1.0000
  Si          0.63736      0.35052      0.46603  1.0000
  Si          0.69275      0.31878      0.13540  1.0000
  Si          0.52963      0.40390      0.96593  1.0000
  Ge          0.53588      0.07354      0.29762  1.0000
  Ge          0.87785      0.44704      0.63115  1.0000
  Ge          0.43301      0.54291      0.46170  1.0000
  Ge          0.41335      0.89083      0.79813  1.0000
  Ge          0.08199      0.52029      0.12934  1.0000
  Ge          0.37781      0.50654      0.36232  1.0000
  Si          0.11886      0.58514      0.03132  1.0000
  Ge          0.44334      0.85899      0.69870  1.0000
  Ge          0.56067      0.46522      0.86746  1.0000
  Si          0.84031      0.38034      0.53266  1.0000
  Si          0.51231      0.11382      0.19957  1.0000
  Si          0.28839      0.38782      0.84633  1.0000
  Si          0.58191      0.89822      0.18603  1.0000
  Si          0.05697      0.66502      0.52009  1.0000
  Si          0.66635      0.57744      0.34964  1.0000
  Si          0.37528      0.07791      0.68582  1.0000
  Si          0.90462      0.29920      0.01974  1.0000
  Si          0.35388      0.26882      0.48335  1.0000
  Si          0.89209      0.60177      0.15311  1.0000
  Si          0.68824      0.08728      0.81931  1.0000
  Si          0.60178      0.68898      0.97900  1.0000
  Si          0.06849      0.36488      0.65168  1.0000
  Si          0.26215      0.88292      0.31767  1.0000
  Si          0.24860      0.32826      0.94894  1.0000
  Si          0.63167      0.89070      0.28800  1.0000
  Si          0.06142      0.72550      0.62204  1.0000
  Si          0.71325      0.63739      0.45187  1.0000
  Si          0.32008      0.07574      0.78835  1.0000
  Si          0.90350      0.24180      0.12146  1.0000
  Si          0.29906      0.22454      0.38066  1.0000
  Si          0.91274      0.65978      0.05032  1.0000
  Si          0.72683      0.06456      0.71671  1.0000
  Si          0.65776      0.74374      0.87690  1.0000
  Si          0.04615      0.30470      0.54881  1.0000
  Si          0.23029      0.90880      0.21484  1.0000
  Si          0.96756      0.11459      0.96912  1.0000
  Si          0.84846      0.82501      0.30293  1.0000
  Si          0.12895      0.00930      0.63624  1.0000
  Si          0.99532      0.84853      0.47017  1.0000
  Si          0.10336      0.14219      0.80160  1.0000
  Si          0.82769      0.95765      0.13513  1.0000
  Si          0.08174      0.94197      0.36940  1.0000
  Si          0.84331      0.87140      0.03387  1.0000
  Si          0.00742      0.12504      0.70164  1.0000
  Si          0.87032      0.02799      0.86878  1.0000
  Si          0.11191      0.08833      0.53544  1.0000
  Si          0.94893      0.84424      0.20237  1.0000
  O2          0.92801      0.99830      0.00420  1.0000
  O2          0.95643      0.90501      0.33991  1.0000
  O2          0.04162      0.03643      0.67068  1.0000
  O2          0.02730      0.96152      0.50577  1.0000
  O2          0.99360      0.06560      0.83828  1.0000
  O2          0.90564      0.92237      0.17032  1.0000
  O3          0.29944      0.55194      0.32330  1.0000
  O3          0.39858      0.73359      0.65977  1.0000
  O2          0.23474      0.65300      0.99476  1.0000
  O3          0.64439      0.41086      0.83231  1.0000
  O2          0.56265      0.23168      0.16372  1.0000
  O2          0.72461      0.31184      0.49592  1.0000
  O2          0.57549      0.33594      0.00337  1.0000
  O3          0.74197      0.39644      0.66746  1.0000
  O3          0.62052      0.21022      0.33350  1.0000
  O3          0.37982      0.62451      0.49891  1.0000
  O3          0.22112      0.57744      0.16344  1.0000
  O3          0.33162      0.75613      0.83532  1.0000
  O2          0.12221      0.20496      0.97039  1.0000
  O2          0.74828      0.87536      0.30709  1.0000
  O2          0.07750      0.85901      0.64023  1.0000
  O2          0.84272      0.75689      0.47166  1.0000
  O2          0.20247      0.09135      0.80748  1.0000
  O2          0.89155      0.11011      0.13885  1.0000
  O2          0.17919      0.09241      0.36156  1.0000
  O2          0.90991      0.78331      0.03019  1.0000
  O2          0.85659      0.07350      0.69588  1.0000
  O2          0.77654      0.87791      0.86009  1.0000
  O2          0.05011      0.17987      0.52918  1.0000
  O2          0.10239      0.90566      0.19530  1.0000
  O2          0.91426      0.85474      0.25383  1.0000
  O2          0.10856      0.04833      0.58679  1.0000
  O2          0.91553      0.05542      0.92054  1.0000
  O2          0.04094      0.11271      0.75267  1.0000
  O2          0.84054      0.91260      0.08526  1.0000
  O2          0.04338      0.91071      0.42133  1.0000
  O2          0.90336      0.20074      0.98219  1.0000
  O2          0.77320      0.67272      0.31272  1.0000
  O2          0.27949      0.08699      0.64891  1.0000
  O2          0.06101      0.76400      0.48217  1.0000
  O2          0.17524      0.29463      0.81138  1.0000
  O2          0.67739      0.89434      0.14756  1.0000
  O2          0.14777      0.86045      0.35270  1.0000
  O2          0.69671      0.78800      0.01720  1.0000
  O2          0.08970      0.27313      0.68646  1.0000
  O2          0.79861      0.10601      0.85578  1.0000
  O2          0.25996      0.16021      0.51923  1.0000
  O2          0.87291      0.69447      0.18857  1.0000
  O2          0.29697      0.64680      0.24599  1.0000
  O2          0.30789      0.63624      0.58114  1.0000
  O2          0.32925      0.66766      0.91509  1.0000
  O2          0.65579      0.32914      0.75052  1.0000
  O2          0.64980      0.32261      0.08412  1.0000
  O2          0.63137      0.29725      0.41558  1.0000
  O2          0.37158      0.32190      0.96795  1.0000
  O3          0.64791      0.01952      0.30863  1.0000
  O3          0.93149      0.61360      0.64207  1.0000
  O3          0.59908      0.65303      0.47162  1.0000
  O3          0.30187      0.94561      0.80819  1.0000
  O3          0.03303      0.35559      0.14056  1.0000
  O3          0.28112      0.33850      0.36197  1.0000
  O2          0.04327      0.66758      0.03127  1.0000
  O3          0.61199      0.93208      0.69832  1.0000
  O3          0.67758      0.63118      0.85843  1.0000
  O2          0.91366      0.29559      0.53154  1.0000
  O2          0.35430      0.04205      0.19832  1.0000
  O2          0.77423      0.30549      0.01353  1.0000
  O2          0.66284      0.44227      0.34594  1.0000
  O2          0.51122      0.20808      0.68098  1.0000
  O2          0.18527      0.65743      0.51223  1.0000
  O2          0.29385      0.52440      0.84399  1.0000
  O2          0.44691      0.77016      0.17805  1.0000
  O2          0.26984      0.75227      0.32032  1.0000
  O2          0.46376      0.67977      0.98661  1.0000
  O2          0.19978      0.50319      0.65469  1.0000
  O2          0.68208      0.21812      0.82219  1.0000
  O2          0.49400      0.27948      0.48769  1.0000
  O2          0.76049      0.46264      0.15617  1.0000
  O2          0.78987      0.52973      0.03254  1.0000
  O2          0.43239      0.24241      0.36116  1.0000
  O2          0.71129      0.18057      0.69779  1.0000
  O2          0.16544      0.43198      0.52857  1.0000
  O2          0.52605      0.73045      0.85757  1.0000
  O2          0.24076      0.79172      0.19353  1.0000
  O2          0.49734      0.76623      0.30387  1.0000
  O2          0.25465      0.45817      0.96686  1.0000
  O2          0.18516      0.71585      0.63886  1.0000
  O2          0.45337      0.19549      0.80590  1.0000
  O2          0.70338      0.50469      0.46869  1.0000
  O2          0.78013      0.25189      0.13960  1.0000
  O2          0.23334      0.31520      0.89522  1.0000
  O2          0.64745      0.89695      0.23317  1.0000
  O2          0.05780      0.73306      0.56721  1.0000
  O2          0.72506      0.64928      0.39728  1.0000
  O2          0.30663      0.07105      0.73375  1.0000
  O2          0.90441      0.23302      0.06671  1.0000
  O2          0.28774      0.20940      0.43478  1.0000
  O2          0.90846      0.67169      0.10430  1.0000
  O2          0.74511      0.07135      0.77088  1.0000
  O2          0.66647      0.75530      0.93196  1.0000
  O2          0.05266      0.29483      0.60267  1.0000
  O2          0.21017      0.89940      0.26868  1.0000
  O2          0.58736      0.54996      0.98594  1.0000
  O3          0.39139      0.00706      0.33158  1.0000
  O3          0.94414      0.37047      0.66530  1.0000
  O3          0.35908      0.39947      0.49480  1.0000
  O3          0.55690      0.96360      0.83189  1.0000
  O3          0.01556      0.59488      0.16549  1.0000
  O3          0.53034      0.56207      0.33819  1.0000
  O2          0.02748      0.43905      0.01235  1.0000
  O3          0.38741      0.95481      0.67498  1.0000
  O3          0.41844      0.39321      0.83298  1.0000
  O2          0.93144      0.52584      0.51329  1.0000
  O2          0.56755      0.02326      0.17961  1.0000
  O3          0.56394      0.17139      0.24798  1.0000
  O3          0.78143      0.37538      0.58099  1.0000
  O3          0.58332      0.39409      0.91843  1.0000
  O1          0.38319      0.79163      0.74961  1.0000
  O3          0.17768      0.59153      0.07928  1.0000
  O1          0.36691      0.56950      0.41258  1.0000
  F           0.44750      0.93263      0.25958  1.0000
  F           0.02024      0.49889      0.59368  1.0000
  F           0.47109      0.51861      0.90562  1.0000
  F           0.50352      0.02894      0.75747  1.0000
  F           0.93831      0.46614      0.09342  1.0000
  F           0.48565      0.45137      0.42119  1.0000
