data_cif

_audit_creation_method             'generated by GULP'

_symmetry_space_group_name_H-M     'P 1'
_symmetry_Int_Tables_number        1
_symmetry_cell_setting             triclinic

_cell_length_a                       12.0444
_cell_length_b                       12.0498
_cell_length_c                       29.5814
_cell_angle_alpha                   90.0555
_cell_angle_beta                    89.9036
_cell_angle_gamma                  120.0543

loop_
_atom_site_label
_atom_site_fract_x
_atom_site_fract_y
_atom_site_fract_z
_atom_site_occupancy
  Ge          0.69960      0.37570      0.03389  1.0000
  Ge          0.62506      0.32357      0.36942  1.0000
  Si          0.68230      0.30358      0.70135  1.0000
  Ge          0.29433      0.61551      0.54871  1.0000
  Ge          0.38804      0.67558      0.87982  1.0000
  Ge          0.32286      0.70322      0.21338  1.0000
  Ge          0.37799      0.69881      0.31222  1.0000
  Si          0.32572      0.62466      0.97807  1.0000
  Si          0.30857      0.67892      0.64689  1.0000
  Ge          0.61916      0.29038      0.79947  1.0000
  Ge          0.68153      0.38219      0.46809  1.0000
  Ge          0.70601      0.32165      0.13263  1.0000
  Si          0.53776      0.42047      0.96286  1.0000
  Si          0.58149      0.11541      0.29863  1.0000
  Si          0.89203      0.46390      0.63349  1.0000
  Si          0.48220      0.58141      0.48671  1.0000
  Si          0.42141      0.89835      0.81855  1.0000
  Si          0.10372      0.51824      0.14936  1.0000
  Si          0.42178      0.53607      0.38366  1.0000
  Si          0.11631      0.57641      0.04640  1.0000
  Si          0.46744      0.88734      0.71538  1.0000
  Si          0.58384      0.48015      0.85969  1.0000
  Si          0.90361      0.41766      0.53044  1.0000
  Si          0.52078      0.10026      0.19566  1.0000
  Si          0.29667      0.40890      0.85089  1.0000
  Si          0.59295      0.88498      0.18629  1.0000
  Si          0.11714      0.70562      0.52076  1.0000
  Si          0.70552      0.61151      0.36241  1.0000
  Si          0.39666      0.09800      0.69577  1.0000
  Si          0.90465      0.29290      0.02671  1.0000
  Si          0.41169      0.29405      0.49516  1.0000
  Si          0.88919      0.59193      0.15875  1.0000
  Si          0.70926      0.11359      0.82743  1.0000
  Si          0.61153      0.70219      0.98366  1.0000
  Si          0.10288      0.39332      0.65275  1.0000
  Si          0.29767      0.90660      0.31937  1.0000
  Si          0.25607      0.34522      0.95345  1.0000
  Si          0.66073      0.91115      0.28862  1.0000
  Si          0.09566      0.74585      0.62368  1.0000
  Si          0.76350      0.66383      0.46492  1.0000
  Si          0.33909      0.09797      0.79811  1.0000
  Si          0.90285      0.23618      0.12903  1.0000
  Si          0.34253      0.25212      0.39298  1.0000
  Si          0.91463      0.65871      0.05615  1.0000
  Si          0.74981      0.09140      0.72462  1.0000
  Si          0.66762      0.76175      0.88121  1.0000
  Si          0.10328      0.33509      0.55052  1.0000
  Si          0.23898      0.90113      0.21695  1.0000
  Si          0.98423      0.12205      0.97395  1.0000
  Si          0.88084      0.86038      0.30784  1.0000
  Si          0.14730      0.01956      0.64228  1.0000
  Si          0.03844      0.88097      0.47343  1.0000
  Si          0.12021      0.15341      0.80535  1.0000
  Si          0.84638      0.96142      0.13883  1.0000
  Si          0.12198      0.98100      0.37284  1.0000
  Si          0.86080      0.87803      0.03775  1.0000
  Si          0.02369      0.14262      0.70498  1.0000
  Si          0.88614      0.03588      0.87362  1.0000
  Si          0.15778      0.11555      0.54154  1.0000
  Si          0.96452      0.84456      0.20684  1.0000
  O2          0.94671      0.00164      0.00670  1.0000
  O2          0.00303      0.94422      0.33959  1.0000
  O2          0.06048      0.05773      0.67279  1.0000
  O2          0.09072      0.00131      0.50622  1.0000
  O2          0.00350      0.08763      0.83962  1.0000
  O2          0.91561      0.91357      0.17300  1.0000
  O3          0.34618      0.58886      0.35565  1.0000
  O2          0.41143      0.75644      0.68668  1.0000
  O2          0.24812      0.65007      0.01800  1.0000
  O3          0.65838      0.43557      0.82813  1.0000
  O3          0.56496      0.21878      0.16416  1.0000
  O3          0.78413      0.34345      0.49938  1.0000
  O3          0.58904      0.34367      0.99080  1.0000
  O2          0.76033      0.40717      0.66172  1.0000
  O3          0.65704      0.24445      0.32624  1.0000
  O3          0.43858      0.65507      0.51904  1.0000
  O3          0.22143      0.56272      0.18117  1.0000
  O3          0.34791      0.78008      0.85042  1.0000
  O2          0.13785      0.21569      0.97489  1.0000
  O2          0.79506      0.92857      0.30781  1.0000
  O2          0.08806      0.86609      0.64510  1.0000
  O2          0.88634      0.79745      0.48189  1.0000
  O2          0.20298      0.08414      0.81342  1.0000
  O2          0.91497      0.11409      0.14571  1.0000
  O2          0.20800      0.13505      0.37381  1.0000
  O2          0.92797      0.79116      0.03669  1.0000
  O2          0.87007      0.08366      0.70312  1.0000
  O2          0.80378      0.88369      0.86570  1.0000
  O2          0.08800      0.19849      0.53525  1.0000
  O2          0.11729      0.91372      0.20006  1.0000
  O2          0.93008      0.85937      0.25781  1.0000
  O2          0.13937      0.05909      0.59156  1.0000
  O2          0.93835      0.06754      0.92429  1.0000
  O2          0.06636      0.13177      0.75486  1.0000
  O2          0.86228      0.92614      0.08808  1.0000
  O2          0.06734      0.92756      0.42206  1.0000
  O2          0.91790      0.20339      0.98868  1.0000
  O2          0.79523      0.71465      0.32443  1.0000
  O2          0.29552      0.08933      0.65771  1.0000
  O2          0.10717      0.79832      0.48335  1.0000
  O2          0.20412      0.30564      0.81349  1.0000
  O2          0.69479      0.89382      0.14854  1.0000
  O2          0.20850      0.92091      0.35730  1.0000
  O2          0.71330      0.79455      0.02165  1.0000
  O2          0.09348      0.29180      0.69072  1.0000
  O2          0.80163      0.10319      0.86487  1.0000
  O2          0.30976      0.20135      0.53293  1.0000
  O2          0.89791      0.69344      0.19652  1.0000
  O1          0.30881      0.61667      0.26401  1.0000
  O3          0.38006      0.68926      0.60092  1.0000
  O3          0.31647      0.68814      0.93256  1.0000
  O3          0.69276      0.37556      0.74710  1.0000
  O1          0.61846      0.30863      0.08235  1.0000
  O1          0.69521      0.31037      0.41725  1.0000
  O2          0.38290      0.34156      0.96798  1.0000
  O2          0.66133      0.04051      0.30316  1.0000
  O2          0.96465      0.61863      0.63886  1.0000
  O2          0.63865      0.66605      0.48361  1.0000
  O2          0.33581      0.96914      0.81570  1.0000
  O2          0.03082      0.36192      0.14686  1.0000
  O2          0.34220      0.38128      0.37884  1.0000
  O2          0.04514      0.65987      0.04162  1.0000
  O2          0.62222      0.96024      0.70984  1.0000
  O2          0.66949      0.63662      0.86238  1.0000
  O2          0.97513      0.33289      0.53271  1.0000
  O2          0.36439      0.02748      0.19811  1.0000
  O3          0.77819      0.29563      0.01378  1.0000
  O3          0.70183      0.48177      0.34891  1.0000
  O2          0.53241      0.22436      0.68388  1.0000
  O3          0.25236      0.71459      0.51555  1.0000
  O3          0.28828      0.53538      0.84621  1.0000
  O3          0.46579      0.75028      0.18117  1.0000
  O3          0.30055      0.77995      0.33239  1.0000
  O2          0.47556      0.69295      0.99552  1.0000
  O2          0.22968      0.52893      0.66424  1.0000
  O3          0.71869      0.24898      0.83253  1.0000
  O3          0.53847      0.28587      0.50006  1.0000
  O3          0.75406      0.46529      0.16434  1.0000
  O3          0.79328      0.54320      0.03271  1.0000
  O3          0.45710      0.24536      0.36889  1.0000
  O2          0.74784      0.21282      0.70295  1.0000
  O3          0.23130      0.44986      0.53100  1.0000
  O3          0.55357      0.77713      0.86238  1.0000
  O3          0.22531      0.77170      0.19838  1.0000
  O3          0.54583      0.78928      0.31235  1.0000
  O2          0.25735      0.46810      0.97561  1.0000
  O2          0.21748      0.74401      0.64502  1.0000
  O3          0.45380      0.22570      0.81770  1.0000
  O3          0.77678      0.54797      0.48349  1.0000
  O3          0.77495      0.22464      0.14825  1.0000
  O2          0.23763      0.33704      0.89942  1.0000
  O2          0.66504      0.89832      0.23438  1.0000
  O2          0.10363      0.76286      0.56955  1.0000
  O2          0.77502      0.67262      0.40983  1.0000
  O2          0.33472      0.10662      0.74278  1.0000
  O2          0.89816      0.22361      0.07399  1.0000
  O2          0.33872      0.23484      0.44717  1.0000
  O2          0.90286      0.66334      0.11043  1.0000
  O2          0.76713      0.10006      0.77871  1.0000
  O2          0.67302      0.77245      0.93658  1.0000
  O2          0.11090      0.33073      0.60581  1.0000
  O2          0.22825      0.89908      0.27201  1.0000
  O2          0.59574      0.56133      0.98602  1.0000
  O2          0.44108      0.02911      0.32146  1.0000
  O2          0.97772      0.40890      0.65545  1.0000
  O2          0.44290      0.43900      0.50442  1.0000
  O2          0.56408      0.99930      0.83694  1.0000
  O2          0.00309      0.56062      0.16752  1.0000
  O2          0.56234      0.59133      0.36077  1.0000
  O2          0.02740      0.43635      0.02456  1.0000
  O2          0.41172      0.97249      0.69345  1.0000
  O2          0.44138      0.43851      0.84113  1.0000
  O2          0.00231      0.56047      0.51136  1.0000
  O2          0.56267      0.99951      0.17723  1.0000
  O2          0.57461      0.14817      0.24655  1.0000
  O2          0.85684      0.42507      0.58165  1.0000
  O2          0.57712      0.42655      0.91081  1.0000
  O2          0.42852      0.85118      0.76725  1.0000
  O2          0.15194      0.57221      0.09824  1.0000
  O2          0.42786      0.57561      0.43580  1.0000
  F           0.41940      0.85172      0.25007  1.0000
  F           0.14533      0.55899      0.58136  1.0000
  F           0.44283      0.58063      0.91195  1.0000
  F           0.56312      0.14129      0.76676  1.0000
  F           0.85376      0.41628      0.09546  1.0000
  F           0.58394      0.43369      0.43117  1.0000
