data_cif

_audit_creation_method             'generated by GULP'

_symmetry_space_group_name_H-M     'P 1'
_symmetry_Int_Tables_number        1
_symmetry_cell_setting             triclinic

_cell_length_a                       12.0526
_cell_length_b                       12.0551
_cell_length_c                       29.5939
_cell_angle_alpha                   89.1226
_cell_angle_beta                    90.2132
_cell_angle_gamma                  120.0367

loop_
_atom_site_label
_atom_site_fract_x
_atom_site_fract_y
_atom_site_fract_z
_atom_site_occupancy
  Ge          0.69960      0.37570      0.03389  1.0000
  Si          0.64495      0.33339      0.36553  1.0000
  Ge          0.68750      0.31040      0.69876  1.0000
  Ge          0.30842      0.63163      0.53992  1.0000
  Ge          0.39272      0.67753      0.87575  1.0000
  Si          0.32475      0.68490      0.20659  1.0000
  Ge          0.40416      0.72965      0.30331  1.0000
  Si          0.32600      0.62662      0.97364  1.0000
  Ge          0.31167      0.68703      0.63858  1.0000
  Ge          0.62487      0.29812      0.79753  1.0000
  Ge          0.68718      0.39966      0.46320  1.0000
  Ge          0.71673      0.32368      0.13255  1.0000
  Si          0.53611      0.42119      0.96325  1.0000
  Si          0.59789      0.11909      0.30165  1.0000
  Si          0.89719      0.47735      0.62815  1.0000
  Si          0.49159      0.59781      0.47479  1.0000
  Si          0.42533      0.90037      0.81350  1.0000
  Si          0.10896      0.51590      0.14298  1.0000
  Si          0.44172      0.55226      0.37104  1.0000
  Si          0.11472      0.57680      0.04059  1.0000
  Si          0.47287      0.89180      0.71036  1.0000
  Si          0.58806      0.48181      0.86011  1.0000
  Si          0.90888      0.43374      0.52511  1.0000
  Si          0.53859      0.10571      0.19870  1.0000
  Si          0.30114      0.41011      0.84903  1.0000
  Si          0.60686      0.88959      0.19086  1.0000
  Si          0.12503      0.72115      0.51504  1.0000
  Si          0.72491      0.61815      0.35703  1.0000
  Si          0.39948      0.10302      0.69094  1.0000
  Si          0.90418      0.29282      0.02388  1.0000
  Si          0.41829      0.31038      0.48845  1.0000
  Si          0.90027      0.59399      0.15716  1.0000
  Si          0.71264      0.11515      0.82360  1.0000
  Si          0.61038      0.70291      0.98189  1.0000
  Si          0.10434      0.39989      0.64829  1.0000
  Si          0.31360      0.91134      0.32275  1.0000
  Si          0.25543      0.34657      0.95183  1.0000
  Si          0.68341      0.91975      0.29248  1.0000
  Si          0.10181      0.76109      0.61729  1.0000
  Si          0.77545      0.67930      0.45911  1.0000
  Si          0.34331      0.10058      0.79342  1.0000
  Si          0.90999      0.23383      0.12640  1.0000
  Si          0.36532      0.27069      0.38562  1.0000
  Si          0.91505      0.65956      0.05421  1.0000
  Si          0.75654      0.09608      0.72126  1.0000
  Si          0.67214      0.76382      0.87955  1.0000
  Si          0.10699      0.34981      0.54590  1.0000
  Si          0.25981      0.90268      0.21993  1.0000
  Si          0.98263      0.12327      0.97166  1.0000
  Si          0.90493      0.86852      0.30441  1.0000
  Si          0.15052      0.03074      0.63735  1.0000
  Si          0.04777      0.90048      0.46926  1.0000
  Si          0.12558      0.15714      0.80255  1.0000
  Si          0.85347      0.95799      0.13825  1.0000
  Si          0.14433      0.99804      0.36972  1.0000
  Si          0.85731      0.87753      0.03625  1.0000
  Si          0.02780      0.14740      0.70192  1.0000
  Si          0.89037      0.03823      0.87093  1.0000
  Si          0.16372      0.13301      0.53677  1.0000
  Si          0.98418      0.84720      0.20396  1.0000
  O2          0.94324      0.00253      0.00521  1.0000
  O2          0.02927      0.95305      0.33428  1.0000
  O2          0.06616      0.06505      0.67013  1.0000
  O2          0.09338      0.01209      0.50499  1.0000
  O2          0.00852      0.08964      0.83712  1.0000
  O2          0.93912      0.91655      0.16754  1.0000
  O3          0.36653      0.59803      0.34000  1.0000
  O3          0.42261      0.76635      0.68178  1.0000
  O2          0.24547      0.65257      0.01203  1.0000
  O3          0.66305      0.43671      0.82999  1.0000
  O3          0.57994      0.22318      0.16631  1.0000
  O3          0.79028      0.35976      0.49389  1.0000
  O3          0.58545      0.34335      0.99242  1.0000
  O3          0.76867      0.42459      0.65639  1.0000
  O2          0.67282      0.25302      0.32792  1.0000
  O3          0.44412      0.67064      0.50546  1.0000
  O2          0.23742      0.56809      0.17252  1.0000
  O3          0.35210      0.78070      0.84554  1.0000
  O2          0.13590      0.21780      0.97369  1.0000
  O2          0.82194      0.93928      0.30732  1.0000
  O2          0.08457      0.87708      0.63681  1.0000
  O2          0.89492      0.81601      0.47482  1.0000
  O2          0.20872      0.08779      0.81012  1.0000
  O2          0.92151      0.11125      0.14321  1.0000
  O2          0.23726      0.15071      0.36446  1.0000
  O2          0.92545      0.79151      0.03506  1.0000
  O2          0.87393      0.08058      0.70172  1.0000
  O2          0.80935      0.88561      0.86448  1.0000
  O2          0.09407      0.21586      0.52916  1.0000
  O2          0.13636      0.90431      0.19832  1.0000
  O2          0.95020      0.87163      0.25330  1.0000
  O2          0.14984      0.08574      0.58822  1.0000
  O2          0.94122      0.07117      0.92181  1.0000
  O2          0.07500      0.14166      0.75196  1.0000
  O2          0.85439      0.92141      0.08659  1.0000
  O2          0.08525      0.96197      0.41944  1.0000
  O2          0.91480      0.20367      0.98571  1.0000
  O2          0.82183      0.71991      0.31923  1.0000
  O2          0.29685      0.09204      0.65328  1.0000
  O2          0.11454      0.81490      0.47748  1.0000
  O2          0.20990      0.30840      0.81176  1.0000
  O2          0.70462      0.88830      0.15323  1.0000
  O2          0.22619      0.92905      0.35990  1.0000
  O2          0.71034      0.79437      0.02005  1.0000
  O2          0.09054      0.29492      0.68630  1.0000
  O2          0.80410      0.10333      0.86153  1.0000
  O2          0.31423      0.21708      0.52587  1.0000
  O2          0.91288      0.69537      0.19483  1.0000
  O3          0.32212      0.62830      0.25518  1.0000
  O1          0.39517      0.70083      0.59060  1.0000
  O3          0.31885      0.69037      0.92772  1.0000
  O1          0.69861      0.38847      0.74737  1.0000
  O1          0.62456      0.31095      0.08369  1.0000
  O3          0.70090      0.32265      0.41265  1.0000
  O2          0.38123      0.34226      0.96769  1.0000
  O2          0.68470      0.05108      0.30622  1.0000
  O2          0.97359      0.63173      0.63295  1.0000
  O2          0.64819      0.68107      0.47513  1.0000
  O2          0.34082      0.97217      0.81156  1.0000
  O2          0.03848      0.36083      0.14433  1.0000
  O2          0.36072      0.39598      0.36983  1.0000
  O2          0.04518      0.66203      0.03838  1.0000
  O2          0.62804      0.96768      0.70668  1.0000
  O2          0.67369      0.63822      0.86205  1.0000
  O2          0.98001      0.34872      0.52798  1.0000
  O2          0.38235      0.02959      0.20039  1.0000
  O3          0.77466      0.29261      0.01398  1.0000
  O2          0.72049      0.48370      0.34748  1.0000
  O3          0.52956      0.23055      0.67836  1.0000
  O3          0.25974      0.72946      0.50951  1.0000
  O3          0.29439      0.53731      0.84293  1.0000
  O2          0.47192      0.75628      0.18597  1.0000
  O3          0.31174      0.78243      0.33463  1.0000
  O2          0.47424      0.69428      0.99249  1.0000
  O3          0.23118      0.52944      0.66076  1.0000
  O3          0.72036      0.24937      0.82955  1.0000
  O3          0.54516      0.30409      0.49664  1.0000
  O3          0.76811      0.46624      0.16460  1.0000
  O3          0.79363      0.54304      0.03181  1.0000
  O2          0.48910      0.27106      0.36495  1.0000
  O3          0.76423      0.21962      0.69820  1.0000
  O3          0.23565      0.46561      0.52645  1.0000
  O3          0.55914      0.77925      0.85941  1.0000
  O2          0.25979      0.77592      0.20318  1.0000
  O3          0.57281      0.79755      0.31671  1.0000
  O2          0.25680      0.46990      0.97282  1.0000
  O3          0.22498      0.76822      0.63994  1.0000
  O3          0.45861      0.22775      0.81291  1.0000
  O3          0.78814      0.56527      0.48028  1.0000
  O3          0.78404      0.22326      0.14629  1.0000
  O2          0.23961      0.33870      0.89779  1.0000
  O2          0.68011      0.90174      0.23767  1.0000
  O2          0.11160      0.77879      0.56303  1.0000
  O2          0.79188      0.68317      0.40398  1.0000
  O2          0.33697      0.10776      0.73846  1.0000
  O2          0.90793      0.22723      0.07139  1.0000
  O2          0.35306      0.24938      0.43974  1.0000
  O2          0.90756      0.66347      0.10857  1.0000
  O2          0.77315      0.10542      0.77558  1.0000
  O2          0.67470      0.77354      0.93489  1.0000
  O2          0.11095      0.33944      0.60094  1.0000
  O2          0.24626      0.90568      0.27400  1.0000
  O2          0.59355      0.56167      0.98576  1.0000
  O2          0.45843      0.03405      0.32497  1.0000
  O2          0.98171      0.42044      0.65078  1.0000
  O2          0.44300      0.45409      0.49483  1.0000
  O2          0.56736      0.00040      0.83212  1.0000
  O2          0.01840      0.56596      0.16352  1.0000
  O2          0.58466      0.59985      0.35127  1.0000
  O2          0.02295      0.43830      0.01900  1.0000
  O2          0.41999      0.98068      0.68852  1.0000
  O2          0.44606      0.43896      0.84077  1.0000
  O2          0.01157      0.57609      0.50643  1.0000
  O2          0.58358      0.00739      0.18075  1.0000
  O2          0.59117      0.15294      0.24930  1.0000
  O2          0.86258      0.43960      0.57625  1.0000
  O2          0.57871      0.42796      0.91173  1.0000
  O2          0.43133      0.85503      0.76250  1.0000
  O2          0.15375      0.56688      0.09185  1.0000
  O2          0.44602      0.59485      0.42283  1.0000
  F           0.45320      0.86748      0.26411  1.0000
  F           0.16039      0.58048      0.57916  1.0000
  F           0.44535      0.58241      0.90986  1.0000
  F           0.57406      0.15258      0.76049  1.0000
  F           0.86148      0.41803      0.09433  1.0000
  F           0.59754      0.45530      0.42835  1.0000
