data_cif

_audit_creation_method             'generated by GULP'

_symmetry_space_group_name_H-M     'P 1'
_symmetry_Int_Tables_number        1
_symmetry_cell_setting             triclinic

_cell_length_a                       12.0306
_cell_length_b                       12.0831
_cell_length_c                       29.6049
_cell_angle_alpha                   89.4870
_cell_angle_beta                    89.8191
_cell_angle_gamma                  120.0578

loop_
_atom_site_label
_atom_site_fract_x
_atom_site_fract_y
_atom_site_fract_z
_atom_site_occupancy
  Ge          0.69960      0.37570      0.03389  1.0000
  Si          0.65431      0.32975      0.36464  1.0000
  Si          0.67679      0.30881      0.69800  1.0000
  Si          0.31976      0.64233      0.52739  1.0000
  Si          0.37377      0.70001      0.86191  1.0000
  Si          0.34001      0.69479      0.19757  1.0000
  Ge          0.41091      0.72582      0.29506  1.0000
  Ge          0.33840      0.61912      0.95972  1.0000
  Ge          0.28973      0.68249      0.62573  1.0000
  Si          0.62332      0.30658      0.80063  1.0000
  Ge          0.68654      0.40506      0.46140  1.0000
  Ge          0.73501      0.33309      0.13176  1.0000
  Si          0.52725      0.41973      0.96716  1.0000
  Si          0.60922      0.11360      0.30196  1.0000
  Ge          0.89945      0.48629      0.63350  1.0000
  Si          0.49159      0.59862      0.46323  1.0000
  Ge          0.43165      0.91907      0.79248  1.0000
  Si          0.12909      0.52845      0.13158  1.0000
  Si          0.44767      0.54537      0.36013  1.0000
  Si          0.12361      0.57982      0.02844  1.0000
  Si          0.46439      0.88894      0.69304  1.0000
  Ge          0.57598      0.48064      0.86253  1.0000
  Si          0.89659      0.43733      0.52882  1.0000
  Si          0.55902      0.11606      0.19890  1.0000
  Si          0.28948      0.41369      0.85017  1.0000
  Si          0.62553      0.89993      0.18732  1.0000
  Si          0.11617      0.72323      0.51812  1.0000
  Si          0.73313      0.61246      0.35139  1.0000
  Si          0.39582      0.10700      0.68484  1.0000
  Si          0.90378      0.29429      0.01970  1.0000
  Si          0.41431      0.31473      0.48332  1.0000
  Si          0.92099      0.60546      0.15125  1.0000
  Si          0.70268      0.10507      0.81739  1.0000
  Si          0.60891      0.70603      0.98381  1.0000
  Si          0.11201      0.41105      0.65057  1.0000
  Si          0.32263      0.90600      0.31957  1.0000
  Si          0.24363      0.33956      0.95257  1.0000
  Si          0.69236      0.91383      0.28950  1.0000
  Si          0.09989      0.77450      0.62040  1.0000
  Si          0.77754      0.68433      0.45320  1.0000
  Si          0.33564      0.10208      0.78716  1.0000
  Si          0.92789      0.24439      0.12153  1.0000
  Si          0.37140      0.26667      0.38046  1.0000
  Si          0.92203      0.65958      0.04849  1.0000
  Si          0.74483      0.09506      0.71411  1.0000
  Si          0.65802      0.76277      0.88041  1.0000
  Si          0.10205      0.36187      0.54719  1.0000
  Si          0.27769      0.91218      0.21661  1.0000
  Si          0.97271      0.11632      0.96811  1.0000
  Si          0.91491      0.86277      0.30116  1.0000
  Si          0.15070      0.04730      0.63413  1.0000
  Si          0.04986      0.90650      0.46759  1.0000
  Si          0.11752      0.16689      0.80128  1.0000
  Si          0.87471      0.97030      0.13491  1.0000
  Si          0.15300      0.99160      0.36717  1.0000
  Si          0.86305      0.87604      0.03389  1.0000
  Si          0.02524      0.15773      0.70046  1.0000
  Si          0.88053      0.04014      0.86714  1.0000
  Si          0.15879      0.14416      0.53326  1.0000
  Si          0.00331      0.85767      0.20024  1.0000
  O2          0.93712      0.99692      0.00078  1.0000
  O2          0.03457      0.94374      0.33346  1.0000
  O2          0.06750      0.07824      0.66870  1.0000
  O2          0.08488      0.02223      0.50139  1.0000
  O2          0.00377      0.07858      0.83590  1.0000
  O2          0.95912      0.93175      0.16613  1.0000
  O3          0.37210      0.58689      0.32829  1.0000
  O3          0.43030      0.78315      0.65665  1.0000
  O3          0.24093      0.65454      0.99650  1.0000
  O3          0.66200      0.43229      0.82891  1.0000
  O3          0.60355      0.23728      0.16897  1.0000
  O3          0.78252      0.36477      0.49589  1.0000
  O3          0.57557      0.34171      0.99662  1.0000
  O3          0.76176      0.43095      0.66752  1.0000
  O2          0.68479      0.24470      0.33014  1.0000
  O2          0.43234      0.67248      0.49083  1.0000
  O2          0.26017      0.58582      0.16042  1.0000
  O3          0.34459      0.77896      0.82693  1.0000
  O2          0.12642      0.20158      0.96916  1.0000
  O2          0.82842      0.92939      0.30550  1.0000
  O2          0.08434      0.89464      0.63575  1.0000
  O2          0.89555      0.82168      0.46899  1.0000
  O2          0.21905      0.11886      0.80578  1.0000
  O2          0.94327      0.12374      0.13788  1.0000
  O2          0.24624      0.14338      0.35973  1.0000
  O2          0.93029      0.79027      0.02926  1.0000
  O2          0.87298      0.09980      0.69386  1.0000
  O2          0.78101      0.89030      0.85991  1.0000
  O2          0.09745      0.23527      0.52658  1.0000
  O2          0.15670      0.91915      0.19567  1.0000
  O2          0.96555      0.87367      0.25051  1.0000
  O2          0.14303      0.09715      0.58467  1.0000
  O2          0.92306      0.06486      0.91857  1.0000
  O2          0.05812      0.14357      0.75171  1.0000
  O2          0.87571      0.92597      0.08443  1.0000
  O2          0.10012      0.96302      0.41799  1.0000
  O2          0.90783      0.19935      0.98218  1.0000
  O2          0.83318      0.71224      0.31397  1.0000
  O2          0.30053      0.11243      0.64723  1.0000
  O2          0.11381      0.82085      0.48061  1.0000
  O2          0.18700      0.31734      0.81309  1.0000
  O2          0.72562      0.90268      0.14989  1.0000
  O2          0.23291      0.92029      0.35734  1.0000
  O2          0.71359      0.79338      0.02128  1.0000
  O2          0.10338      0.30658      0.68716  1.0000
  O2          0.81307      0.12203      0.85315  1.0000
  O2          0.30889      0.22471      0.52089  1.0000
  O2          0.93626      0.70830      0.18897  1.0000
  O3          0.33152      0.63218      0.24565  1.0000
  O3          0.37953      0.69509      0.57533  1.0000
  O3          0.32533      0.70318      0.91233  1.0000
  O2          0.67439      0.35156      0.74944  1.0000
  O1          0.63394      0.31654      0.08557  1.0000
  O3          0.70564      0.32449      0.41329  1.0000
  O2          0.37175      0.33946      0.96997  1.0000
  O2          0.69388      0.04339      0.30600  1.0000
  O3          0.96833      0.65045      0.63704  1.0000
  O2          0.64650      0.68428      0.46806  1.0000
  O3          0.31846      0.97199      0.80581  1.0000
  O2          0.05832      0.37384      0.13679  1.0000
  O2          0.36608      0.38925      0.36233  1.0000
  O2          0.05088      0.66335      0.03171  1.0000
  O2          0.62354      0.96575      0.69671  1.0000
  O3          0.67155      0.64517      0.86271  1.0000
  O2          0.97201      0.35642      0.53173  1.0000
  O2          0.40241      0.04097      0.19981  1.0000
  O3          0.76971      0.28867      0.01297  1.0000
  O2          0.73272      0.47878      0.34575  1.0000
  O2          0.53139      0.23907      0.67898  1.0000
  O2          0.24759      0.71969      0.50988  1.0000
  O2          0.29200      0.54753      0.84668  1.0000
  O2          0.49064      0.76847      0.18009  1.0000
  O3          0.31843      0.77499      0.32888  1.0000
  O3          0.48030      0.70661      0.99379  1.0000
  O3          0.24245      0.53956      0.65873  1.0000
  O2          0.69372      0.23503      0.82271  1.0000
  O3          0.54201      0.31356      0.49451  1.0000
  O3          0.79222      0.47759      0.16314  1.0000
  O3          0.79647      0.54158      0.02845  1.0000
  O2          0.49850      0.26797      0.36245  1.0000
  O2          0.74002      0.21808      0.69461  1.0000
  O2          0.22544      0.48736      0.52668  1.0000
  O2          0.52867      0.75096      0.86088  1.0000
  O2          0.27749      0.78790      0.19714  1.0000
  O3          0.57796      0.78878      0.31098  1.0000
  O3          0.22933      0.45115      0.97346  1.0000
  O3          0.22365      0.78264      0.64180  1.0000
  O2          0.46772      0.22554      0.80534  1.0000
  O3          0.78823      0.57220      0.47637  1.0000
  O3          0.80432      0.23395      0.14436  1.0000
  O2          0.23435      0.33764      0.89755  1.0000
  O2          0.69425      0.90460      0.23451  1.0000
  O2          0.11277      0.78678      0.56528  1.0000
  O2          0.79356      0.68371      0.39841  1.0000
  O2          0.32711      0.10326      0.73218  1.0000
  O2          0.91662      0.23297      0.06686  1.0000
  O2          0.35440      0.24996      0.43474  1.0000
  O2          0.91574      0.66798      0.10300  1.0000
  O2          0.76275      0.10115      0.76815  1.0000
  O2          0.67065      0.77236      0.93487  1.0000
  O2          0.10776      0.34909      0.60127  1.0000
  O2          0.25940      0.90693      0.27088  1.0000
  O2          0.58874      0.56226      0.98804  1.0000
  O2          0.46773      0.02772      0.32426  1.0000
  O3          0.98691      0.42559      0.65856  1.0000
  O2          0.43471      0.45848      0.48643  1.0000
  O3          0.57256      0.97952      0.82842  1.0000
  O2          0.04364      0.58344      0.15367  1.0000
  O2          0.59172      0.58854      0.34229  1.0000
  O2          0.01788      0.43857      0.01116  1.0000
  O2          0.41724      0.98893      0.67595  1.0000
  O3          0.42876      0.43338      0.83888  1.0000
  O2          0.99647      0.58246      0.51203  1.0000
  O2          0.60429      0.01933      0.17949  1.0000
  O2          0.60733      0.15479      0.25048  1.0000
  O3          0.84709      0.43789      0.57967  1.0000
  O3          0.57168      0.42120      0.91580  1.0000
  O3          0.40700      0.83050      0.74197  1.0000
  O2          0.16802      0.56948      0.07970  1.0000
  O2          0.45231      0.59549      0.41132  1.0000
  F           0.46592      0.87000      0.25990  1.0000
  F           0.13884      0.58902      0.59247  1.0000
  F           0.42867      0.56396      0.92454  1.0000
  F           0.52498      0.06872      0.75880  1.0000
  F           0.87274      0.42315      0.09075  1.0000
  F           0.59874      0.45723      0.42436  1.0000
