data_cif

_audit_creation_method             'generated by GULP'

_symmetry_space_group_name_H-M     'P 1'
_symmetry_Int_Tables_number        1
_symmetry_cell_setting             triclinic

_cell_length_a                       12.0518
_cell_length_b                       12.0510
_cell_length_c                       29.6011
_cell_angle_alpha                   90.0223
_cell_angle_beta                    89.9346
_cell_angle_gamma                  119.8585

loop_
_atom_site_label
_atom_site_fract_x
_atom_site_fract_y
_atom_site_fract_z
_atom_site_occupancy
  Ge          0.69960      0.37570      0.03389  1.0000
  Ge          0.57786      0.29228      0.36845  1.0000
  Ge          0.66058      0.25648      0.70167  1.0000
  Ge          0.25451      0.57291      0.53525  1.0000
  Ge          0.37905      0.65862      0.86706  1.0000
  Ge          0.29795      0.69517      0.20254  1.0000
  Si          0.33420      0.65573      0.29989  1.0000
  Ge          0.30562      0.61664      0.96548  1.0000
  Si          0.29904      0.65161      0.63233  1.0000
  Si          0.62290      0.29390      0.79890  1.0000
  Ge          0.65142      0.33352      0.46682  1.0000
  Ge          0.66120      0.29860      0.13200  1.0000
  Si          0.52382      0.41393      0.96635  1.0000
  Si          0.53661      0.07715      0.30136  1.0000
  Si          0.87760      0.43467      0.63683  1.0000
  Si          0.43204      0.53597      0.46827  1.0000
  Si          0.41971      0.87253      0.79939  1.0000
  Si          0.08257      0.51701      0.13668  1.0000
  Si          0.37832      0.48621      0.36527  1.0000
  Si          0.09311      0.57598      0.03372  1.0000
  Si          0.46974      0.86820      0.69626  1.0000
  Si          0.57822      0.46453      0.86337  1.0000
  Si          0.86637      0.37560      0.53373  1.0000
  Si          0.48614      0.08295      0.19825  1.0000
  Si          0.29273      0.38653      0.84535  1.0000
  Si          0.56811      0.87870      0.17931  1.0000
  Si          0.07015      0.66012      0.51338  1.0000
  Si          0.66415      0.56443      0.34696  1.0000
  Si          0.39131      0.07548      0.67828  1.0000
  Si          0.88852      0.29095      0.01361  1.0000
  Si          0.36468      0.25046      0.47896  1.0000
  Si          0.86364      0.58408      0.14659  1.0000
  Si          0.70312      0.08962      0.81024  1.0000
  Si          0.59240      0.69935      0.97764  1.0000
  Si          0.09596      0.36881      0.64617  1.0000
  Si          0.25346      0.85941      0.31212  1.0000
  Si          0.24212      0.33250      0.94810  1.0000
  Si          0.61463      0.87497      0.28236  1.0000
  Si          0.07870      0.71304      0.61636  1.0000
  Si          0.71359      0.61728      0.44974  1.0000
  Si          0.34244      0.07582      0.78121  1.0000
  Si          0.88381      0.23668      0.11645  1.0000
  Si          0.29570      0.20228      0.37682  1.0000
  Si          0.88949      0.65651      0.04480  1.0000
  Si          0.75336      0.06862      0.70812  1.0000
  Si          0.66115      0.74808      0.87542  1.0000
  Si          0.06879      0.29372      0.54452  1.0000
  Si          0.20305      0.88087      0.21029  1.0000
  Si          0.96803      0.11626      0.96368  1.0000
  Si          0.83366      0.81903      0.29824  1.0000
  Si          0.13562      0.98849      0.63090  1.0000
  Si          0.98772      0.83333      0.46429  1.0000
  Si          0.12297      0.13161      0.79731  1.0000
  Si          0.82398      0.96156      0.13078  1.0000
  Si          0.07428      0.92902      0.36343  1.0000
  Si          0.83972      0.87797      0.02999  1.0000
  Si          0.02691      0.11986      0.69661  1.0000
  Si          0.88215      0.02131      0.86255  1.0000
  Si          0.11651      0.07081      0.53065  1.0000
  Si          0.93191      0.83228      0.19765  1.0000
  O2          0.92187      0.99873      0.99795  1.0000
  O2          0.95232      0.89152      0.33202  1.0000
  O2          0.06553      0.03676      0.66500  1.0000
  O2          0.03517      0.95181      0.49804  1.0000
  O2          0.00625      0.06019      0.83207  1.0000
  O2          0.89271      0.91221      0.16483  1.0000
  O2          0.30462      0.54313      0.33607  1.0000
  O2          0.41363      0.73699      0.66748  1.0000
  O3          0.22137      0.65189      0.00531  1.0000
  O2          0.65254      0.40697      0.83486  1.0000
  O3          0.53773      0.21126      0.16993  1.0000
  O3          0.73680      0.29878      0.50614  1.0000
  O3          0.56918      0.33917      0.99668  1.0000
  O3          0.76016      0.39387      0.66844  1.0000
  O3          0.61334      0.19582      0.33211  1.0000
  O3          0.38820      0.61074      0.49961  1.0000
  O3          0.20003      0.55913      0.16837  1.0000
  O3          0.34336      0.75418      0.83033  1.0000
  O2          0.12146      0.20057      0.96701  1.0000
  O2          0.74106      0.87919      0.30352  1.0000
  O2          0.07661      0.83653      0.63741  1.0000
  O2          0.83461      0.74860      0.46878  1.0000
  O2          0.21556      0.07130      0.80219  1.0000
  O2          0.89194      0.11450      0.13584  1.0000
  O2          0.16077      0.08235      0.35984  1.0000
  O2          0.90920      0.79357      0.02797  1.0000
  O2          0.87376      0.05260      0.69228  1.0000
  O2          0.79630      0.86802      0.85855  1.0000
  O2          0.04679      0.15490      0.52903  1.0000
  O2          0.08529      0.90132      0.19475  1.0000
  O2          0.88678      0.83890      0.24782  1.0000
  O2          0.11229      0.01825      0.58048  1.0000
  O2          0.92536      0.06230      0.91364  1.0000
  O2          0.06675      0.11105      0.74736  1.0000
  O2          0.84076      0.92596      0.08030  1.0000
  O2          0.02695      0.88662      0.41405  1.0000
  O2          0.90620      0.20375      0.97582  1.0000
  O2          0.75249      0.66867      0.30924  1.0000
  O2          0.28672      0.05923      0.64073  1.0000
  O2          0.05172      0.74750      0.47597  1.0000
  O2          0.20464      0.28226      0.80768  1.0000
  O2          0.67371      0.89676      0.14177  1.0000
  O2          0.15513      0.86015      0.34959  1.0000
  O2          0.69233      0.79400      0.01530  1.0000
  O2          0.09589      0.27000      0.68367  1.0000
  O2          0.80149      0.08943      0.84770  1.0000
  O2          0.26446      0.15586      0.51669  1.0000
  O2          0.86803      0.68345      0.18457  1.0000
  O3          0.28136      0.59726      0.25153  1.0000
  O3          0.35490      0.65509      0.58358  1.0000
  O1          0.29656      0.67517      0.91424  1.0000
  O3          0.67627      0.35342      0.75072  1.0000
  O1          0.59781      0.29163      0.08018  1.0000
  O1          0.66090      0.27608      0.41542  1.0000
  O2          0.36799      0.33004      0.96432  1.0000
  O2          0.61787      0.00196      0.30021  1.0000
  O2          0.95204      0.59076      0.63502  1.0000
  O2          0.58780      0.62062      0.46559  1.0000
  O2          0.33851      0.94778      0.79826  1.0000
  O2          0.01131      0.36121      0.13365  1.0000
  O2          0.29539      0.33167      0.36053  1.0000
  O2          0.01869      0.65643      0.02919  1.0000
  O2          0.62457      0.93771      0.69240  1.0000
  O2          0.66147      0.61906      0.85867  1.0000
  O2          0.93839      0.29263      0.52961  1.0000
  O2          0.33136      0.01093      0.19466  1.0000
  O3          0.76010      0.29047      0.00197  1.0000
  O3          0.66554      0.43667      0.33614  1.0000
  O3          0.51817      0.20566      0.66830  1.0000
  O3          0.19982      0.66253      0.50239  1.0000
  O3          0.29084      0.51414      0.83491  1.0000
  O3          0.44135      0.74815      0.16923  1.0000
  O2          0.25738      0.72778      0.31862  1.0000
  O3          0.46415      0.70440      0.98514  1.0000
  O2          0.22853      0.50357      0.65166  1.0000
  O2          0.69977      0.22150      0.81715  1.0000
  O3          0.49261      0.24489      0.48636  1.0000
  O3          0.73028      0.45589      0.15297  1.0000
  O3          0.76595      0.54417      0.02215  1.0000
  O3          0.40994      0.19223      0.35528  1.0000
  O3          0.76330      0.19181      0.68590  1.0000
  O3          0.19157      0.40484      0.52121  1.0000
  O3          0.54704      0.75874      0.85413  1.0000
  O3          0.19238      0.75748      0.18775  1.0000
  O2          0.48969      0.74864      0.30077  1.0000
  O3          0.23503      0.45026      0.96924  1.0000
  O2          0.20551      0.71377      0.63395  1.0000
  O2          0.46735      0.20095      0.80025  1.0000
  O3          0.72013      0.49956      0.47104  1.0000
  O3          0.75775      0.22892      0.13661  1.0000
  O2          0.22669      0.32384      0.89366  1.0000
  O2          0.62990      0.87533      0.22808  1.0000
  O2          0.07580      0.72652      0.56210  1.0000
  O2          0.73032      0.62609      0.39530  1.0000
  O2          0.32844      0.07796      0.72696  1.0000
  O2          0.88083      0.22294      0.06192  1.0000
  O2          0.29233      0.19032      0.43166  1.0000
  O2          0.87696      0.65804      0.09953  1.0000
  O2          0.76628      0.08242      0.76306  1.0000
  O2          0.66451      0.75927      0.93026  1.0000
  O2          0.08617      0.29628      0.59931  1.0000
  O2          0.18948      0.86601      0.26517  1.0000
  O2          0.56191      0.55471      0.98551  1.0000
  O2          0.39383      0.97879      0.32013  1.0000
  O2          0.97795      0.39196      0.65504  1.0000
  O2          0.39550      0.39517      0.48683  1.0000
  O2          0.56250      0.97044      0.81817  1.0000
  O2          0.97748      0.55323      0.15482  1.0000
  O2          0.51962      0.54211      0.34384  1.0000
  O2          0.01107      0.43500      0.01110  1.0000
  O2          0.41438      0.95352      0.67406  1.0000
  O2          0.43741      0.40936      0.84173  1.0000
  O2          0.94784      0.51555      0.51007  1.0000
  O2          0.54433      0.00020      0.17516  1.0000
  O2          0.52951      0.12023      0.25000  1.0000
  O2          0.83186      0.38302      0.58576  1.0000
  O2          0.57674      0.42437      0.91507  1.0000
  O2          0.42710      0.82937      0.74792  1.0000
  O2          0.12886      0.57176      0.08580  1.0000
  O2          0.37849      0.52616      0.41704  1.0000
  F           0.38526      0.83613      0.23872  1.0000
  F           0.11539      0.52113      0.57248  1.0000
  F           0.42826      0.56859      0.90669  1.0000
  F           0.57196      0.11481      0.73763  1.0000
  F           0.83606      0.42395      0.07472  1.0000
  F           0.52816      0.38160      0.40814  1.0000
