data_stw-00

_audit_creation_method RASPA-1.0
_audit_creation_date 2017-3-16
_audit_author_name 'axolotlol'

_cell_length_a    11.9412
_cell_length_b    11.9412
_cell_length_c    29.4009
_cell_angle_alpha 90
_cell_angle_beta  90
_cell_angle_gamma 120
_cell_volume      3630.67

_symmetry_cell_setting          triclinic
_symmetry_space_group_name_Hall 'P 1'
_symmetry_space_group_name_H-M  'P 1'
_symmetry_Int_Tables_number     1

_symmetry_equiv_pos_as_xyz 'x,y,z'

loop_
_atom_site_label
_atom_site_type_symbol
_atom_site_fract_x
_atom_site_fract_y
_atom_site_fract_z
_atom_site_charge
Si       Si     0.699600000000     0.375700000000     0.033890000000     0.6        
Si       Si     0.617460000000     0.321160000000     0.367220000000     0.6        
Si       Si     0.672000000000     0.293560000000     0.700560000000     0.6        
Si       Si     0.293100000000     0.617910000000     0.533890000000     0.6        
Si       Si     0.375250000000     0.672450000000     0.867220000000     0.6        
Si       Si     0.320710000000     0.700060000000     0.200560000000     0.6        
Si       Si     0.375250000000     0.700060000000     0.301360000000     0.6        
Si       Si     0.320710000000     0.617910000000     0.968020000000     0.6        
Si       Si     0.293100000000     0.672450000000     0.634690000000     0.6        
Si       Si     0.617460000000     0.293550000000     0.801360000000     0.6        
Si       Si     0.672000000000     0.375710000000     0.468030000000     0.6        
Si       Si     0.699610000000     0.321160000000     0.134690000000     0.6        
Si       Si     0.527490000000     0.413320000000     0.968550000000     0.6        
Si       Si     0.579840000000     0.111430000000     0.301880000000     0.6        
Si       Si     0.881730000000     0.465670000000     0.635210000000     0.6        
Si       Si     0.465220000000     0.580290000000     0.468550000000     0.6        
Si       Si     0.412870000000     0.882190000000     0.801880000000     0.6        
Si       Si     0.110970000000     0.527940000000     0.135210000000     0.6        
Si       Si     0.412870000000     0.527940000000     0.366700000000     0.6        
Si       Si     0.110970000000     0.580290000000     0.033370000000     0.6        
Si       Si     0.465220000000     0.882190000000     0.700030000000     0.6        
Si       Si     0.579840000000     0.465670000000     0.866700000000     0.6        
Si       Si     0.881730000000     0.413320000000     0.533370000000     0.6        
Si       Si     0.527490000000     0.111430000000     0.200030000000     0.6        
Si       Si     0.298560000000     0.393950000000     0.852410000000     0.6        
Si       Si     0.599210000000     0.901870000000     0.185740000000     0.6        
Si       Si     0.091290000000     0.694600000000     0.519080000000     0.6        
Si       Si     0.694150000000     0.599670000000     0.352410000000     0.6        
Si       Si     0.393500000000     0.091740000000     0.685740000000     0.6        
Si       Si     0.901420000000     0.299010000000     0.019080000000     0.6        
Si       Si     0.393500000000     0.299010000000     0.482840000000     0.6        
Si       Si     0.901420000000     0.599670000000     0.149500000000     0.6        
Si       Si     0.694150000000     0.091740000000     0.816170000000     0.6        
Si       Si     0.599210000000     0.694600000000     0.982840000000     0.6        
Si       Si     0.091290000000     0.393950000000     0.649500000000     0.6        
Si       Si     0.298560000000     0.901870000000     0.316170000000     0.6        
Si       Si     0.248470000000     0.336270000000     0.953260000000     0.6        
Si       Si     0.656890000000     0.909460000000     0.286600000000     0.6        
Si       Si     0.083700000000     0.744690000000     0.619930000000     0.6        
Si       Si     0.744230000000     0.657340000000     0.453260000000     0.6        
Si       Si     0.335820000000     0.084150000000     0.786600000000     0.6        
Si       Si     0.909010000000     0.248930000000     0.119930000000     0.6        
Si       Si     0.335820000000     0.248930000000     0.381980000000     0.6        
Si       Si     0.909010000000     0.657340000000     0.048650000000     0.6        
Si       Si     0.744240000000     0.084150000000     0.715320000000     0.6        
Si       Si     0.656890000000     0.744690000000     0.881980000000     0.6        
Si       Si     0.083700000000     0.336270000000     0.548650000000     0.6        
Si       Si     0.248470000000     0.909460000000     0.215320000000     0.6        
Si       Si     0.968390000000     0.118280000000     0.968200000000     0.6        
Si       Si     0.874880000000     0.847370000000     0.301540000000     0.6        
Si       Si     0.145790000000     0.024770000000     0.634870000000     0.6        
Si       Si     0.024310000000     0.875330000000     0.468200000000     0.6        
Si       Si     0.117830000000     0.146240000000     0.801540000000     0.6        
Si       Si     0.846920000000     0.968850000000     0.134870000000     0.6        
Si       Si     0.117830000000     0.968850000000     0.367040000000     0.6        
Si       Si     0.846920000000     0.875330000000     0.033710000000     0.6        
Si       Si     0.024310000000     0.146240000000     0.700380000000     0.6        
Si       Si     0.874880000000     0.024760000000     0.867040000000     0.6        
Si       Si     0.145790000000     0.118290000000     0.533710000000     0.6        
Si       Si     0.968400000000     0.847370000000     0.200380000000     0.6        
O        O      0.926750000000     0.996800000000     0.000960000000    -0.3        
O        O      0.996350000000     0.927200000000     0.334290000000    -0.3        
O        O      0.065960000000     0.066410000000     0.667620000000    -0.3        
O        O      0.065960000000     0.996810000000     0.500960000000    -0.3        
O        O      0.996350000000     0.066410000000     0.834290000000    -0.3        
O        O      0.926750000000     0.927200000000     0.167620000000    -0.3        
O        O      0.336060000000     0.576660000000     0.334150000000    -0.3        
O        O      0.416500000000     0.756660000000     0.667490000000    -0.3        
O        O      0.236500000000     0.657100000000     0.000820000000    -0.3        
O        O      0.656650000000     0.416950000000     0.834150000000    -0.3        
O        O      0.576210000000     0.236960000000     0.167490000000    -0.3        
O        O      0.756200000000     0.336510000000     0.500820000000    -0.3        
O        O      0.576210000000     0.336510000000     0.001100000000    -0.3        
O        O      0.756200000000     0.416950000000     0.667760000000    -0.3        
O        O      0.656650000000     0.236960000000     0.334430000000    -0.3        
O        O      0.416500000000     0.657100000000     0.501090000000    -0.3        
O        O      0.236510000000     0.576670000000     0.167760000000    -0.3        
O        O      0.336060000000     0.756650000000     0.834430000000    -0.3        
O        O      0.122820000000     0.209440000000     0.973610000000    -0.3        
O        O      0.783730000000     0.910640000000     0.306940000000    -0.3        
O        O      0.082520000000     0.870350000000     0.640280000000    -0.3        
O        O      0.869890000000     0.784180000000     0.473610000000    -0.3        
O        O      0.208980000000     0.082970000000     0.806940000000    -0.3        
O        O      0.910190000000     0.123270000000     0.140280000000    -0.3        
O        O      0.208980000000     0.123270000000     0.361640000000    -0.3        
O        O      0.910180000000     0.784170000000     0.028300000000    -0.3        
O        O      0.869890000000     0.082970000000     0.694970000000    -0.3        
O        O      0.783730000000     0.870340000000     0.861640000000    -0.3        
O        O      0.082520000000     0.209440000000     0.528300000000    -0.3        
O        O      0.122820000000     0.910640000000     0.194970000000    -0.3        
O        O      0.928290000000     0.860680000000     0.250960000000    -0.3        
O        O      0.132480000000     0.064870000000     0.584290000000    -0.3        
O        O      0.928290000000     0.064870000000     0.917620000000    -0.3        
O        O      0.064420000000     0.132940000000     0.750960000000    -0.3        
O        O      0.860230000000     0.928740000000     0.084290000000    -0.3        
O        O      0.064420000000     0.928740000000     0.417620000000    -0.3        
O        O      0.898990000000     0.200740000000     0.980380000000    -0.3        
O        O      0.792420000000     0.695520000000     0.313710000000    -0.3        
O        O      0.297650000000     0.094170000000     0.647050000000    -0.3        
O        O      0.093710000000     0.792880000000     0.480380000000    -0.3        
O        O      0.200290000000     0.298100000000     0.813710000000    -0.3        
O        O      0.695060000000     0.899450000000     0.147050000000    -0.3        
O        O      0.200290000000     0.899450000000     0.354870000000    -0.3        
O        O      0.695060000000     0.792870000000     0.021530000000    -0.3        
O        O      0.093710000000     0.298100000000     0.688200000000    -0.3        
O        O      0.792420000000     0.094170000000     0.854870000000    -0.3        
O        O      0.297650000000     0.200740000000     0.521530000000    -0.3        
O        O      0.899000000000     0.695520000000     0.188200000000    -0.3        
O        O      0.319090000000     0.642280000000     0.250960000000    -0.3        
O        O      0.350880000000     0.674070000000     0.584290000000    -0.3        
O        O      0.319090000000     0.674070000000     0.917620000000    -0.3        
O        O      0.673620000000     0.351330000000     0.750960000000    -0.3        
O        O      0.641820000000     0.319540000000     0.084290000000    -0.3        
O        O      0.673620000000     0.319540000000     0.417620000000    -0.3        
O        O      0.370940000000     0.325880000000     0.971600000000    -0.3        
O        O      0.667280000000     0.042320000000     0.304940000000    -0.3        
O        O      0.950840000000     0.622220000000     0.638270000000    -0.3        
O        O      0.621770000000     0.667740000000     0.471600000000    -0.3        
O        O      0.325430000000     0.951290000000     0.804940000000    -0.3        
O        O      0.041870000000     0.371400000000     0.138270000000    -0.3        
O        O      0.325430000000     0.371400000000     0.363640000000    -0.3        
O        O      0.041870000000     0.667730000000     0.030310000000    -0.3        
O        O      0.621770000000     0.951290000000     0.696980000000    -0.3        
O        O      0.667280000000     0.622220000000     0.863640000000    -0.3        
O        O      0.950840000000     0.325880000000     0.530310000000    -0.3        
O        O      0.370940000000     0.042320000000     0.196980000000    -0.3        
O        O      0.767670000000     0.300080000000     0.011580000000    -0.3        
O        O      0.693080000000     0.464850000000     0.344910000000    -0.3        
O        O      0.528310000000     0.225490000000     0.678240000000    -0.3        
O        O      0.225030000000     0.693530000000     0.511580000000    -0.3        
O        O      0.299630000000     0.528770000000     0.844910000000    -0.3        
O        O      0.464400000000     0.768130000000     0.178240000000    -0.3        
O        O      0.299630000000     0.768130000000     0.323670000000    -0.3        
O        O      0.464390000000     0.693530000000     0.990340000000    -0.3        
O        O      0.225030000000     0.528770000000     0.657000000000    -0.3        
O        O      0.693080000000     0.225490000000     0.823670000000    -0.3        
O        O      0.528310000000     0.300090000000     0.490340000000    -0.3        
O        O      0.767670000000     0.464850000000     0.157000000000    -0.3        
O        O      0.782020000000     0.532100000000     0.029010000000    -0.3        
O        O      0.461060000000     0.247180000000     0.362350000000    -0.3        
O        O      0.745980000000     0.211140000000     0.695680000000    -0.3        
O        O      0.210680000000     0.461510000000     0.529010000000    -0.3        
O        O      0.531650000000     0.746430000000     0.862350000000    -0.3        
O        O      0.246730000000     0.782480000000     0.195680000000    -0.3        
O        O      0.531650000000     0.782480000000     0.306230000000    -0.3        
O        O      0.246730000000     0.461510000000     0.972900000000    -0.3        
O        O      0.210680000000     0.746430000000     0.639570000000    -0.3        
O        O      0.461060000000     0.211140000000     0.806240000000    -0.3        
O        O      0.745980000000     0.532110000000     0.472900000000    -0.3        
O        O      0.782030000000     0.247180000000     0.139570000000    -0.3        
O        O      0.228300000000     0.318690000000     0.898840000000    -0.3        
O        O      0.674470000000     0.906870000000     0.232180000000    -0.3        
O        O      0.086290000000     0.764860000000     0.565510000000    -0.3        
O        O      0.764410000000     0.674930000000     0.398840000000    -0.3        
O        O      0.318240000000     0.086750000000     0.732180000000    -0.3        
O        O      0.906410000000     0.228750000000     0.065510000000    -0.3        
O        O      0.318240000000     0.228750000000     0.436400000000    -0.3        
O        O      0.906410000000     0.674920000000     0.103070000000    -0.3        
O        O      0.764410000000     0.086750000000     0.769740000000    -0.3        
O        O      0.674470000000     0.764860000000     0.936400000000    -0.3        
O        O      0.086290000000     0.318690000000     0.603070000000    -0.3        
O        O      0.228300000000     0.906870000000     0.269740000000    -0.3        
O        O      0.585250000000     0.554940000000     0.991690000000    -0.3        
O        O      0.438220000000     0.027580000000     0.325020000000    -0.3        
O        O      0.965580000000     0.407910000000     0.658360000000    -0.3        
O        O      0.407450000000     0.438680000000     0.491690000000    -0.3        
O        O      0.554490000000     0.966030000000     0.825020000000    -0.3        
O        O      0.027130000000     0.585710000000     0.158360000000    -0.3        
O        O      0.554490000000     0.585710000000     0.343560000000    -0.3        
O        O      0.027120000000     0.438670000000     0.010220000000    -0.3        
O        O      0.407450000000     0.966040000000     0.676890000000    -0.3        
O        O      0.438220000000     0.407900000000     0.843560000000    -0.3        
O        O      0.965580000000     0.554940000000     0.510220000000    -0.3        
O        O      0.585260000000     0.027580000000     0.176890000000    -0.3        
O        O      0.580430000000     0.164970000000     0.250960000000    -0.3        
O        O      0.828200000000     0.412730000000     0.584290000000    -0.3        
O        O      0.580430000000     0.412730000000     0.917620000000    -0.3        
O        O      0.412280000000     0.828650000000     0.750960000000    -0.3        
O        O      0.164510000000     0.580880000000     0.084290000000    -0.3        
O        O      0.412280000000     0.580890000000     0.417620000000    -0.3        
F        F      0.449200000000     0.902500000000     0.250960000000    -1          
F        F      0.090660000000     0.543960000000     0.584290000000    -1          
F        F      0.449200000000     0.543960000000     0.917620000000    -1          
F        F      0.543510000000     0.091110000000     0.750960000000    -1          
F        F      0.902050000000     0.449650000000     0.084290000000    -1          
F        F      0.543510000000     0.449660000000     0.417620000000    -1          


