data_c0001

_audit_creation_method RASPA-1.0
_audit_creation_date 2017-1-16
_audit_author_name 'axolotlol'

_cell_length_a    11.9021
_cell_length_b    11.9021
_cell_length_c    29.692
_cell_angle_alpha 90
_cell_angle_beta  90
_cell_angle_gamma 120
_cell_volume      3642.65

_symmetry_cell_setting          triclinic
_symmetry_space_group_name_Hall 'P 1'
_symmetry_space_group_name_H-M  'P 1'
_symmetry_Int_Tables_number     1

_symmetry_equiv_pos_as_xyz 'x,y,z'

loop_
_atom_site_label
_atom_site_type_symbol
_atom_site_fract_x
_atom_site_fract_y
_atom_site_fract_z
_atom_site_charge
Ogg      O      0.637600000000     0.318900000000     0.083330000000     4          
Oss      O      0.924000000000     0.000000000000     0.000000000000     4          
Oss      O      0.000000000000     0.076000000000     0.833330000000     4          
Oss      O      0.924000000000     0.924000000000     0.166670000000     4          
Oss      O      0.419000000000     0.755400000000     0.665900000000     4          
Oss      O      0.244600000000     0.663600000000     0.999240000000     4          
Oss      O      0.663600000000     0.419000000000     0.832570000000     4          
Oss      O      0.663600000000     0.244600000000     0.334100000000     4          
Oss      O      0.419000000000     0.663600000000     0.500760000000     4          
Oss      O      0.244600000000     0.581000000000     0.167430000000     4          
Oss      O      0.131100000000     0.214200000000     0.971840000000     4          
Oss      O      0.785800000000     0.916900000000     0.305170000000     4          
Oss      O      0.083100000000     0.868900000000     0.638510000000     4          
Oss      O      0.868900000000     0.785800000000     0.471840000000     4          
Oss      O      0.214200000000     0.083100000000     0.805170000000     4          
Oss      O      0.916900000000     0.131100000000     0.138510000000     4          
Oss      O      0.916900000000     0.785800000000     0.028160000000     4          
Oss      O      0.785800000000     0.868900000000     0.861490000000     4          
Oss      O      0.131100000000     0.916900000000     0.194830000000     4          
Oss      O      0.928800000000     0.857600000000     0.250000000000     4          
Oss      O      0.928800000000     0.071200000000     0.916670000000     4          
Oss      O      0.857600000000     0.928800000000     0.083330000000     4          
Oss      O      0.898200000000     0.203600000000     0.978650000000     4          
Oss      O      0.796400000000     0.694600000000     0.311980000000     4          
Oss      O      0.305400000000     0.101800000000     0.645320000000     4          
Oss      O      0.101800000000     0.796400000000     0.478650000000     4          
Oss      O      0.203600000000     0.305400000000     0.811980000000     4          
Oss      O      0.694600000000     0.898200000000     0.145320000000     4          
Oss      O      0.694600000000     0.796400000000     0.021350000000     4          
Oss      O      0.796400000000     0.101800000000     0.854680000000     4          
Oss      O      0.898200000000     0.694600000000     0.188020000000     4          
Oss      O      0.362400000000     0.681100000000     0.583330000000     4          
Oss      O      0.370300000000     0.326300000000     0.968980000000     4          
Oss      O      0.673700000000     0.044000000000     0.302310000000     4          
Oss      O      0.956000000000     0.629700000000     0.635650000000     4          
Oss      O      0.629700000000     0.673700000000     0.468980000000     4          
Oss      O      0.326300000000     0.956000000000     0.802310000000     4          
Oss      O      0.044000000000     0.370300000000     0.135650000000     4          
Oss      O      0.326300000000     0.370300000000     0.364350000000     4          
Oss      O      0.044000000000     0.673700000000     0.031020000000     4          
Oss      O      0.629700000000     0.956000000000     0.697690000000     4          
Oss      O      0.673700000000     0.629700000000     0.864350000000     4          
Oss      O      0.956000000000     0.326300000000     0.531020000000     4          
Oss      O      0.370300000000     0.044000000000     0.197690000000     4          
Oss      O      0.699800000000     0.469200000000     0.344680000000     4          
Oss      O      0.230600000000     0.699800000000     0.511350000000     4          
Oss      O      0.469200000000     0.769400000000     0.178020000000     4          
Oss      O      0.469200000000     0.699800000000     0.988650000000     4          
Oss      O      0.230600000000     0.530800000000     0.655320000000     4          
Oss      O      0.699800000000     0.230600000000     0.821980000000     4          
Oss      O      0.470900000000     0.258600000000     0.364290000000     4          
Oss      O      0.212300000000     0.470900000000     0.530960000000     4          
Oss      O      0.258600000000     0.787700000000     0.197630000000     4          
Oss      O      0.258600000000     0.470900000000     0.969040000000     4          
Oss      O      0.212300000000     0.741400000000     0.635710000000     4          
Oss      O      0.470900000000     0.212300000000     0.802370000000     4          
Oss      O      0.233800000000     0.322500000000     0.898670000000     4          
Oss      O      0.677500000000     0.911300000000     0.232000000000     4          
Oss      O      0.088700000000     0.766200000000     0.565340000000     4          
Oss      O      0.766200000000     0.677500000000     0.398670000000     4          
Oss      O      0.322500000000     0.088700000000     0.732000000000     4          
Oss      O      0.911300000000     0.233800000000     0.065340000000     4          
Oss      O      0.322500000000     0.233800000000     0.434660000000     4          
Oss      O      0.911300000000     0.677500000000     0.101330000000     4          
Oss      O      0.766200000000     0.088700000000     0.768000000000     4          
Oss      O      0.677500000000     0.766200000000     0.934660000000     4          
Oss      O      0.088700000000     0.322500000000     0.601330000000     4          
Oss      O      0.233800000000     0.911300000000     0.268000000000     4          
Oss      O      0.585900000000     0.559200000000     0.988340000000     4          
Oss      O      0.440800000000     0.026700000000     0.321670000000     4          
Oss      O      0.973300000000     0.414100000000     0.655010000000     4          
Oss      O      0.414100000000     0.440800000000     0.488340000000     4          
Oss      O      0.559200000000     0.973300000000     0.821670000000     4          
Oss      O      0.026700000000     0.585900000000     0.155010000000     4          
Oss      O      0.559200000000     0.585900000000     0.344990000000     4          
Oss      O      0.026700000000     0.440800000000     0.011660000000     4          
Oss      O      0.414100000000     0.973300000000     0.678330000000     4          
Oss      O      0.440800000000     0.414100000000     0.844990000000     4          
Oss      O      0.973300000000     0.559200000000     0.511660000000     4          
Oss      O      0.585900000000     0.026700000000     0.178330000000     4          
Oss      O      0.585600000000     0.171300000000     0.250000000000     4          
Oss      O      0.828700000000     0.414300000000     0.583330000000     4          
Oss      O      0.585700000000     0.414400000000     0.916670000000     4          
Oss      O      0.414400000000     0.828700000000     0.750000000000     4          
Oss      O      0.171300000000     0.585700000000     0.083330000000     4          
Oss      O      0.414300000000     0.585600000000     0.416670000000     4          
Ogs      O      0.000000000000     0.924000000000     0.333330000000     4          
Ogs      O      0.076000000000     0.076000000000     0.666670000000     4          
Ogs      O      0.076000000000     0.000000000000     0.500000000000     4          
Ogs      O      0.336400000000     0.581000000000     0.332570000000     4          
Ogs      O      0.581000000000     0.244600000000     0.165900000000     4          
Ogs      O      0.755400000000     0.336400000000     0.499240000000     4          
Ogs      O      0.581000000000     0.336400000000     0.000760000000     4          
Ogs      O      0.755400000000     0.419000000000     0.667430000000     4          
Ogs      O      0.336400000000     0.755400000000     0.834100000000     4          
Ogs      O      0.214200000000     0.131100000000     0.361490000000     4          
Ogs      O      0.868900000000     0.083100000000     0.694830000000     4          
Ogs      O      0.083100000000     0.214200000000     0.528160000000     4          
Ogs      O      0.142400000000     0.071200000000     0.583330000000     4          
Ogs      O      0.071200000000     0.142400000000     0.750000000000     4          
Ogs      O      0.071200000000     0.928800000000     0.416670000000     4          
Ogs      O      0.203600000000     0.898200000000     0.354680000000     4          
Ogs      O      0.101800000000     0.305400000000     0.688020000000     4          
Ogs      O      0.305400000000     0.203600000000     0.521350000000     4          
Ogs      O      0.318700000000     0.637600000000     0.250000000000     4          
Ogs      O      0.318900000000     0.681300000000     0.916670000000     4          
Ogs      O      0.681300000000     0.362400000000     0.750000000000     4          
Ogs      O      0.681100000000     0.318700000000     0.416670000000     4          
Ogs      O      0.769400000000     0.300200000000     0.011350000000     4          
Ogs      O      0.530800000000     0.230600000000     0.678020000000     4          
Ogs      O      0.300200000000     0.530800000000     0.844680000000     4          
Ogs      O      0.300200000000     0.769400000000     0.321980000000     4          
Ogs      O      0.530800000000     0.300200000000     0.488650000000     4          
Ogs      O      0.769400000000     0.469200000000     0.155320000000     4          
Ogs      O      0.787700000000     0.529100000000     0.030960000000     4          
Ogs      O      0.741400000000     0.212300000000     0.697630000000     4          
Ogs      O      0.529100000000     0.741400000000     0.864290000000     4          
Ogs      O      0.529100000000     0.787700000000     0.302370000000     4          
Ogs      O      0.741400000000     0.529100000000     0.469040000000     4          
Ogs      O      0.787700000000     0.258600000000     0.135710000000     4          
F        F      0.451000000000     0.902000000000     0.250000000000     4          
F        F      0.098000000000     0.549000000000     0.583330000000     4          
F        F      0.451000000000     0.549000000000     0.916670000000     4          
F        F      0.549000000000     0.098000000000     0.750000000000     4          
F        F      0.902000000000     0.451000000000     0.083330000000     4          
F        F      0.549000000000     0.451000000000     0.416670000000     4          
Si       Si     0.624300000000     0.323900000000     0.367220000000     4          
Si       Si     0.300400000000     0.624300000000     0.533890000000     4          
Si       Si     0.323900000000     0.699600000000     0.200560000000     4          
Si       Si     0.323900000000     0.624300000000     0.966110000000     4          
Si       Si     0.300400000000     0.676100000000     0.632780000000     4          
Si       Si     0.624300000000     0.300400000000     0.799440000000     4          
Si       Si     0.530300000000     0.413400000000     0.966870000000     4          
Si       Si     0.586600000000     0.116900000000     0.300200000000     4          
Si       Si     0.883100000000     0.469700000000     0.633540000000     4          
Si       Si     0.469700000000     0.586600000000     0.466870000000     4          
Si       Si     0.413400000000     0.883100000000     0.800200000000     4          
Si       Si     0.116900000000     0.530300000000     0.133540000000     4          
Si       Si     0.413400000000     0.530300000000     0.366460000000     4          
Si       Si     0.116900000000     0.586600000000     0.033130000000     4          
Si       Si     0.469700000000     0.883100000000     0.699800000000     4          
Si       Si     0.586600000000     0.469700000000     0.866460000000     4          
Si       Si     0.883100000000     0.413400000000     0.533130000000     4          
Si       Si     0.530300000000     0.116900000000     0.199800000000     4          
Si       Si     0.298800000000     0.394300000000     0.851190000000     4          
Si       Si     0.605700000000     0.904500000000     0.184520000000     4          
Si       Si     0.095500000000     0.701200000000     0.517860000000     4          
Si       Si     0.701200000000     0.605700000000     0.351190000000     4          
Si       Si     0.394300000000     0.095500000000     0.684520000000     4          
Si       Si     0.904500000000     0.298800000000     0.017860000000     4          
Si       Si     0.394300000000     0.298800000000     0.482140000000     4          
Si       Si     0.904500000000     0.605700000000     0.148810000000     4          
Si       Si     0.701200000000     0.095500000000     0.815480000000     4          
Si       Si     0.605700000000     0.701200000000     0.982140000000     4          
Si       Si     0.095500000000     0.394300000000     0.648810000000     4          
Si       Si     0.298800000000     0.904500000000     0.315480000000     4          
Si       Si     0.248500000000     0.334900000000     0.952100000000     4          
Si       Si     0.665100000000     0.913600000000     0.285430000000     4          
Si       Si     0.086400000000     0.751500000000     0.618770000000     4          
Si       Si     0.751500000000     0.665100000000     0.452100000000     4          
Si       Si     0.334900000000     0.086400000000     0.785430000000     4          
Si       Si     0.913600000000     0.248500000000     0.118770000000     4          
Si       Si     0.334900000000     0.248500000000     0.381230000000     4          
Si       Si     0.913600000000     0.665100000000     0.047900000000     4          
Si       Si     0.751500000000     0.086400000000     0.714570000000     4          
Si       Si     0.665100000000     0.751500000000     0.881230000000     4          
Si       Si     0.086400000000     0.334900000000     0.547900000000     4          
Si       Si     0.248500000000     0.913600000000     0.214570000000     4          
Si       Si     0.970200000000     0.122900000000     0.966970000000     4          
Si       Si     0.877100000000     0.847300000000     0.300300000000     4          
Si       Si     0.152700000000     0.029800000000     0.633640000000     4          
Si       Si     0.029800000000     0.877100000000     0.466970000000     4          
Si       Si     0.122900000000     0.152700000000     0.800300000000     4          
Si       Si     0.847300000000     0.970200000000     0.133640000000     4          
Si       Si     0.847300000000     0.877100000000     0.033030000000     4          
Si       Si     0.877100000000     0.029800000000     0.866360000000     4          
Si       Si     0.970200000000     0.847300000000     0.199700000000     4          
Ge       Ge     0.699600000000     0.375700000000     0.033890000000     4          
Ge       Ge     0.676100000000     0.300400000000     0.700560000000     4          
Ge       Ge     0.375700000000     0.676100000000     0.867220000000     4          
Ge       Ge     0.375700000000     0.699600000000     0.299440000000     4          
Ge       Ge     0.676100000000     0.375700000000     0.466110000000     4          
Ge       Ge     0.699600000000     0.323900000000     0.132780000000     4          
Ge       Ge     0.122900000000     0.970200000000     0.366360000000     4          
Ge       Ge     0.029800000000     0.152700000000     0.699700000000     4          
Ge       Ge     0.152700000000     0.122900000000     0.533030000000     4          


