data_c0001

_audit_creation_method RASPA-1.0
_audit_creation_date 2017-1-16
_audit_author_name 'axolotlol'

_cell_length_a    11.9021
_cell_length_b    11.9021
_cell_length_c    29.692
_cell_angle_alpha 90
_cell_angle_beta  90
_cell_angle_gamma 120
_cell_volume      3642.65

_symmetry_cell_setting          triclinic
_symmetry_space_group_name_Hall 'P 1'
_symmetry_space_group_name_H-M  'P 1'
_symmetry_Int_Tables_number     1

_symmetry_equiv_pos_as_xyz 'x,y,z'

loop_
_atom_site_label
_atom_site_type_symbol
_atom_site_fract_x
_atom_site_fract_y
_atom_site_fract_z
_atom_site_charge
Ge       Ge     0.699600000000     0.375700000000     0.033890000000     4          
Si       Si     0.624300000000     0.323900000000     0.367220000000     4          
Ge       Ge     0.676100000000     0.300400000000     0.700560000000     4          
Si       Si     0.300400000000     0.624300000000     0.533890000000     4          
Ge       Ge     0.375700000000     0.676100000000     0.867220000000     4          
Si       Si     0.323900000000     0.699600000000     0.200560000000     4          
Ge       Ge     0.375700000000     0.699600000000     0.299440000000     4          
Si       Si     0.323900000000     0.624300000000     0.966110000000     4          
Si       Si     0.300400000000     0.676100000000     0.632780000000     4          
Si       Si     0.624300000000     0.300400000000     0.799440000000     4          
Ge       Ge     0.676100000000     0.375700000000     0.466110000000     4          
Ge       Ge     0.699600000000     0.323900000000     0.132780000000     4          
Si       Si     0.530300000000     0.413400000000     0.966870000000     4          
Si       Si     0.586600000000     0.116900000000     0.300200000000     4          
Si       Si     0.883100000000     0.469700000000     0.633540000000     4          
Si       Si     0.469700000000     0.586600000000     0.466870000000     4          
Si       Si     0.413400000000     0.883100000000     0.800200000000     4          
Si       Si     0.116900000000     0.530300000000     0.133540000000     4          
Si       Si     0.413400000000     0.530300000000     0.366460000000     4          
Si       Si     0.116900000000     0.586600000000     0.033130000000     4          
Si       Si     0.469700000000     0.883100000000     0.699800000000     4          
Si       Si     0.586600000000     0.469700000000     0.866460000000     4          
Si       Si     0.883100000000     0.413400000000     0.533130000000     4          
Si       Si     0.530300000000     0.116900000000     0.199800000000     4          
Si       Si     0.298800000000     0.394300000000     0.851190000000     4          
Si       Si     0.605700000000     0.904500000000     0.184520000000     4          
Si       Si     0.095500000000     0.701200000000     0.517860000000     4          
Si       Si     0.701200000000     0.605700000000     0.351190000000     4          
Si       Si     0.394300000000     0.095500000000     0.684520000000     4          
Si       Si     0.904500000000     0.298800000000     0.017860000000     4          
Si       Si     0.394300000000     0.298800000000     0.482140000000     4          
Si       Si     0.904500000000     0.605700000000     0.148810000000     4          
Si       Si     0.701200000000     0.095500000000     0.815480000000     4          
Si       Si     0.605700000000     0.701200000000     0.982140000000     4          
Si       Si     0.095500000000     0.394300000000     0.648810000000     4          
Si       Si     0.298800000000     0.904500000000     0.315480000000     4          
Si       Si     0.248500000000     0.334900000000     0.952100000000     4          
Si       Si     0.665100000000     0.913600000000     0.285430000000     4          
Si       Si     0.086400000000     0.751500000000     0.618770000000     4          
Si       Si     0.751500000000     0.665100000000     0.452100000000     4          
Si       Si     0.334900000000     0.086400000000     0.785430000000     4          
Si       Si     0.913600000000     0.248500000000     0.118770000000     4          
Si       Si     0.334900000000     0.248500000000     0.381230000000     4          
Si       Si     0.913600000000     0.665100000000     0.047900000000     4          
Si       Si     0.751500000000     0.086400000000     0.714570000000     4          
Si       Si     0.665100000000     0.751500000000     0.881230000000     4          
Si       Si     0.086400000000     0.334900000000     0.547900000000     4          
Si       Si     0.248500000000     0.913600000000     0.214570000000     4          
Si       Si     0.970200000000     0.122900000000     0.966970000000     4          
Si       Si     0.877100000000     0.847300000000     0.300300000000     4          
Si       Si     0.152700000000     0.029800000000     0.633640000000     4          
Si       Si     0.029800000000     0.877100000000     0.466970000000     4          
Si       Si     0.122900000000     0.152700000000     0.800300000000     4          
Si       Si     0.847300000000     0.970200000000     0.133640000000     4          
Ge       Ge     0.122900000000     0.970200000000     0.366360000000     4          
Si       Si     0.847300000000     0.877100000000     0.033030000000     4          
Ge       Ge     0.029800000000     0.152700000000     0.699700000000     4          
Si       Si     0.877100000000     0.029800000000     0.866360000000     4          
Ge       Ge     0.152700000000     0.122900000000     0.533030000000     4          
Si       Si     0.970200000000     0.847300000000     0.199700000000     4          
Oss      O      0.924000000000     0.000000000000     0.000000000000     0.870733   
Ogs      O      0.000000000000     0.924000000000     0.333330000000     1.33043    
Ogs      O      0.076000000000     0.076000000000     0.666670000000     1.33043    
Ogs      O      0.076000000000     0.000000000000     0.500000000000     1.33043    
Oss      O      0.000000000000     0.076000000000     0.833330000000     0.870733   
Oss      O      0.924000000000     0.924000000000     0.166670000000     0.870733   
Ogs      O      0.336400000000     0.581000000000     0.332570000000     1.33043    
Oss      O      0.419000000000     0.755400000000     0.665900000000     0.870733   
Oss      O      0.244600000000     0.663600000000     0.999240000000     0.870733   
Oss      O      0.663600000000     0.419000000000     0.832570000000     0.870733   
Ogs      O      0.581000000000     0.244600000000     0.165900000000     1.33043    
Ogs      O      0.755400000000     0.336400000000     0.499240000000     1.33043    
Ogs      O      0.581000000000     0.336400000000     0.000760000000     1.33043    
Ogs      O      0.755400000000     0.419000000000     0.667430000000     1.33043    
Oss      O      0.663600000000     0.244600000000     0.334100000000     0.870733   
Oss      O      0.419000000000     0.663600000000     0.500760000000     0.870733   
Oss      O      0.244600000000     0.581000000000     0.167430000000     0.870733   
Ogs      O      0.336400000000     0.755400000000     0.834100000000     1.33043    
Oss      O      0.131100000000     0.214200000000     0.971840000000     0.870733   
Oss      O      0.785800000000     0.916900000000     0.305170000000     0.870733   
Oss      O      0.083100000000     0.868900000000     0.638510000000     0.870733   
Oss      O      0.868900000000     0.785800000000     0.471840000000     0.870733   
Oss      O      0.214200000000     0.083100000000     0.805170000000     0.870733   
Oss      O      0.916900000000     0.131100000000     0.138510000000     0.870733   
Ogs      O      0.214200000000     0.131100000000     0.361490000000     1.33043    
Oss      O      0.916900000000     0.785800000000     0.028160000000     0.870733   
Ogs      O      0.868900000000     0.083100000000     0.694830000000     1.33043    
Oss      O      0.785800000000     0.868900000000     0.861490000000     0.870733   
Ogs      O      0.083100000000     0.214200000000     0.528160000000     1.33043    
Oss      O      0.131100000000     0.916900000000     0.194830000000     0.870733   
Oss      O      0.928800000000     0.857600000000     0.250000000000     0.870733   
Ogs      O      0.142400000000     0.071200000000     0.583330000000     1.33043    
Oss      O      0.928800000000     0.071200000000     0.916670000000     0.870733   
Ogs      O      0.071200000000     0.142400000000     0.750000000000     1.33043    
Oss      O      0.857600000000     0.928800000000     0.083330000000     0.870733   
Ogs      O      0.071200000000     0.928800000000     0.416670000000     1.33043    
Oss      O      0.898200000000     0.203600000000     0.978650000000     0.870733   
Oss      O      0.796400000000     0.694600000000     0.311980000000     0.870733   
Oss      O      0.305400000000     0.101800000000     0.645320000000     0.870733   
Oss      O      0.101800000000     0.796400000000     0.478650000000     0.870733   
Oss      O      0.203600000000     0.305400000000     0.811980000000     0.870733   
Oss      O      0.694600000000     0.898200000000     0.145320000000     0.870733   
Ogs      O      0.203600000000     0.898200000000     0.354680000000     1.33043    
Oss      O      0.694600000000     0.796400000000     0.021350000000     0.870733   
Ogs      O      0.101800000000     0.305400000000     0.688020000000     1.33043    
Oss      O      0.796400000000     0.101800000000     0.854680000000     0.870733   
Ogs      O      0.305400000000     0.203600000000     0.521350000000     1.33043    
Oss      O      0.898200000000     0.694600000000     0.188020000000     0.870733   
Ogs      O      0.318700000000     0.637600000000     0.250000000000     1.33043    
Oss      O      0.362400000000     0.681100000000     0.583330000000     0.870733   
Ogs      O      0.318900000000     0.681300000000     0.916670000000     1.33043    
Ogs      O      0.681300000000     0.362400000000     0.750000000000     1.33043    
Ogg      O      0.637600000000     0.318900000000     0.083330000000     1.73396    
Ogs      O      0.681100000000     0.318700000000     0.416670000000     1.33043    
Oss      O      0.370300000000     0.326300000000     0.968980000000     0.870733   
Oss      O      0.673700000000     0.044000000000     0.302310000000     0.870733   
Oss      O      0.956000000000     0.629700000000     0.635650000000     0.870733   
Oss      O      0.629700000000     0.673700000000     0.468980000000     0.870733   
Oss      O      0.326300000000     0.956000000000     0.802310000000     0.870733   
Oss      O      0.044000000000     0.370300000000     0.135650000000     0.870733   
Oss      O      0.326300000000     0.370300000000     0.364350000000     0.870733   
Oss      O      0.044000000000     0.673700000000     0.031020000000     0.870733   
Oss      O      0.629700000000     0.956000000000     0.697690000000     0.870733   
Oss      O      0.673700000000     0.629700000000     0.864350000000     0.870733   
Oss      O      0.956000000000     0.326300000000     0.531020000000     0.870733   
Oss      O      0.370300000000     0.044000000000     0.197690000000     0.870733   
Ogs      O      0.769400000000     0.300200000000     0.011350000000     1.33043    
Oss      O      0.699800000000     0.469200000000     0.344680000000     0.870733   
Ogs      O      0.530800000000     0.230600000000     0.678020000000     1.33043    
Oss      O      0.230600000000     0.699800000000     0.511350000000     0.870733   
Ogs      O      0.300200000000     0.530800000000     0.844680000000     1.33043    
Oss      O      0.469200000000     0.769400000000     0.178020000000     0.870733   
Ogs      O      0.300200000000     0.769400000000     0.321980000000     1.33043    
Oss      O      0.469200000000     0.699800000000     0.988650000000     0.870733   
Oss      O      0.230600000000     0.530800000000     0.655320000000     0.870733   
Oss      O      0.699800000000     0.230600000000     0.821980000000     0.870733   
Ogs      O      0.530800000000     0.300200000000     0.488650000000     1.33043    
Ogs      O      0.769400000000     0.469200000000     0.155320000000     1.33043    
Ogs      O      0.787700000000     0.529100000000     0.030960000000     1.33043    
Oss      O      0.470900000000     0.258600000000     0.364290000000     0.870733   
Ogs      O      0.741400000000     0.212300000000     0.697630000000     1.33043    
Oss      O      0.212300000000     0.470900000000     0.530960000000     0.870733   
Ogs      O      0.529100000000     0.741400000000     0.864290000000     1.33043    
Oss      O      0.258600000000     0.787700000000     0.197630000000     0.870733   
Ogs      O      0.529100000000     0.787700000000     0.302370000000     1.33043    
Oss      O      0.258600000000     0.470900000000     0.969040000000     0.870733   
Oss      O      0.212300000000     0.741400000000     0.635710000000     0.870733   
Oss      O      0.470900000000     0.212300000000     0.802370000000     0.870733   
Ogs      O      0.741400000000     0.529100000000     0.469040000000     1.33043    
Ogs      O      0.787700000000     0.258600000000     0.135710000000     1.33043    
Oss      O      0.233800000000     0.322500000000     0.898670000000     0.870733   
Oss      O      0.677500000000     0.911300000000     0.232000000000     0.870733   
Oss      O      0.088700000000     0.766200000000     0.565340000000     0.870733   
Oss      O      0.766200000000     0.677500000000     0.398670000000     0.870733   
Oss      O      0.322500000000     0.088700000000     0.732000000000     0.870733   
Oss      O      0.911300000000     0.233800000000     0.065340000000     0.870733   
Oss      O      0.322500000000     0.233800000000     0.434660000000     0.870733   
Oss      O      0.911300000000     0.677500000000     0.101330000000     0.870733   
Oss      O      0.766200000000     0.088700000000     0.768000000000     0.870733   
Oss      O      0.677500000000     0.766200000000     0.934660000000     0.870733   
Oss      O      0.088700000000     0.322500000000     0.601330000000     0.870733   
Oss      O      0.233800000000     0.911300000000     0.268000000000     0.870733   
Oss      O      0.585900000000     0.559200000000     0.988340000000     0.870733   
Oss      O      0.440800000000     0.026700000000     0.321670000000     0.870733   
Oss      O      0.973300000000     0.414100000000     0.655010000000     0.870733   
Oss      O      0.414100000000     0.440800000000     0.488340000000     0.870733   
Oss      O      0.559200000000     0.973300000000     0.821670000000     0.870733   
Oss      O      0.026700000000     0.585900000000     0.155010000000     0.870733   
Oss      O      0.559200000000     0.585900000000     0.344990000000     0.870733   
Oss      O      0.026700000000     0.440800000000     0.011660000000     0.870733   
Oss      O      0.414100000000     0.973300000000     0.678330000000     0.870733   
Oss      O      0.440800000000     0.414100000000     0.844990000000     0.870733   
Oss      O      0.973300000000     0.559200000000     0.511660000000     0.870733   
Oss      O      0.585900000000     0.026700000000     0.178330000000     0.870733   
Oss      O      0.585600000000     0.171300000000     0.250000000000     0.870733   
Oss      O      0.828700000000     0.414300000000     0.583330000000     0.870733   
Oss      O      0.585700000000     0.414400000000     0.916670000000     0.870733   
Oss      O      0.414400000000     0.828700000000     0.750000000000     0.870733   
Oss      O      0.171300000000     0.585700000000     0.083330000000     0.870733   
Oss      O      0.414300000000     0.585600000000     0.416670000000     0.870733   
F        F      0.451000000000     0.902000000000     0.250000000000     0.56       
F        F      0.098000000000     0.549000000000     0.583330000000     0.56       
F        F      0.451000000000     0.549000000000     0.916670000000     0.56       
F        F      0.549000000000     0.098000000000     0.750000000000     0.56       
F        F      0.902000000000     0.451000000000     0.083330000000     0.56       
F        F      0.549000000000     0.451000000000     0.416670000000     0.56       
shOgg    O      0.641896579199     0.320855768286     0.085482467473    -3.73396    
shOss    O      0.936234533316     0.009411581730     0.000471215159    -2.87073    
shOss    O      0.007554842665     0.076310122805     0.836462031116    -2.87073    
shOss    O      0.931477544618     0.931010044800     0.169035158235    -2.87073    
shOss    O      0.425615330717     0.760061571532     0.667500811825    -2.87073    
shOss    O      0.248097467099     0.668589439349     1.000791829336    -2.87073    
shOss    O      0.669451625603     0.428026240363     0.833155040685    -2.87073    
shOss    O      0.670816455896     0.247632444914     0.335719586018    -2.87073    
shOss    O      0.427648989539     0.670365216083     0.501627178819    -2.87073    
shOss    O      0.257697382974     0.590494181229     0.169531942928    -2.87073    
shOss    O      0.143643498659     0.223661334117     0.974407075561    -2.87073    
shOss    O      0.795424982341     0.924710985553     0.307925684114    -2.87073    
shOss    O      0.087051173718     0.868937698733     0.639650933365    -2.87073    
shOss    O      0.877675738007     0.794508225947     0.473940243386    -2.87073    
shOss    O      0.222288189812     0.085229388294     0.805849477151    -2.87073    
shOss    O      0.925047889346     0.133126819537     0.138778803104    -2.87073    
shOss    O      0.923148957653     0.791865504415     0.029331862815    -2.87073    
shOss    O      0.794227596034     0.874225701982     0.864211797657    -2.87073    
shOss    O      0.139996782735     0.923233855183     0.197740166341    -2.87073    
shOss    O      0.930099273171     0.857814735921     0.253260159227    -2.87073    
shOss    O      0.930815868784     0.075101705876     0.916827419185    -2.87073    
shOss    O      0.865131335390     0.937743638516     0.085885585826    -2.87073    
shOss    O      0.905181110324     0.204204275763     0.979315375248    -2.87073    
shOss    O      0.806268218576     0.703631163409     0.314546896947    -2.87073    
shOss    O      0.315703445061     0.107197014878     0.647344263336    -2.87073    
shOss    O      0.111763487306     0.801691226649     0.481489131079    -2.87073    
shOss    O      0.208947793462     0.307422518955     0.812178789193    -2.87073    
shOss    O      0.702154167648     0.902642467037     0.147888339918    -2.87073    
shOss    O      0.700698930294     0.800669904248     0.023078819259    -2.87073    
shOss    O      0.804098123361     0.109761350003     0.857066934571    -2.87073    
shOss    O      0.910669106335     0.703592120892     0.189133486842    -2.87073    
shOss    O      0.372593984070     0.685771936343     0.586504086803    -2.87073    
shOss    O      0.375861167929     0.330482728815     0.969863487934    -2.87073    
shOss    O      0.681632191709     0.045723343537     0.304273067765    -2.87073    
shOss    O      0.962119235040     0.637315542715     0.635839534848    -2.87073    
shOss    O      0.636001591627     0.674736215969     0.472267139547    -2.87073    
shOss    O      0.335386470261     0.960464374945     0.803382707632    -2.87073    
shOss    O      0.050584545758     0.370399878149     0.138766659566    -2.87073    
shOss    O      0.331173240709     0.372918765919     0.366169132663    -2.87073    
shOss    O      0.051489030242     0.679919439778     0.032729019063    -2.87073    
shOss    O      0.632827502288     0.957101493003     0.700780881384    -2.87073    
shOss    O      0.678905913812     0.633587899360     0.866811938945    -2.87073    
shOss    O      0.964325770931     0.327463141090     0.531866023365    -2.87073    
shOss    O      0.379217913830     0.052295850343     0.200069989233    -2.87073    
shOss    O      0.702310556185     0.469297478843     0.347137235436    -2.87073    
shOss    O      0.235165340297     0.702989081304     0.513611834903    -2.87073    
shOss    O      0.477358641555     0.778055313733     0.179231767040    -2.87073    
shOss    O      0.472681282355     0.701026141748     0.992005202663    -2.87073    
shOss    O      0.236018149383     0.533332870937     0.655738249377    -2.87073    
shOss    O      0.706314895247     0.232756961501     0.825136547492    -2.87073    
shOss    O      0.481107643721     0.264762595195     0.364696078149    -2.87073    
shOss    O      0.214995599122     0.474672641370     0.531053438147    -2.87073    
shOss    O      0.264252937770     0.791455502636     0.199725160277    -2.87073    
shOss    O      0.261993166461     0.476736238822     0.970735136077    -2.87073    
shOss    O      0.215863391203     0.745722629132     0.637440599906    -2.87073    
shOss    O      0.478137822606     0.214656999936     0.803877211375    -2.87073    
shOss    O      0.243315762659     0.328358117705     0.901168176884    -2.87073    
shOss    O      0.683758618818     0.913313538352     0.235011923120    -2.87073    
shOss    O      0.098794759222     0.773632983229     0.567262149978    -2.87073    
shOss    O      0.770293877019     0.680641514275     0.398987920439    -2.87073    
shOss    O      0.328714888737     0.095584531241     0.732155901745    -2.87073    
shOss    O      0.918241289130     0.237518538317     0.067607324979    -2.87073    
shOss    O      0.326215523993     0.237862563680     0.436745795702    -2.87073    
shOss    O      0.916113850960     0.683180035885     0.102941901071    -2.87073    
shOss    O      0.769481039843     0.090286355977     0.768217231951    -2.87073    
shOss    O      0.682647074229     0.772987360509     0.937480139432    -2.87073    
shOss    O      0.093630838166     0.326202924793     0.602517098369    -2.87073    
shOss    O      0.243472462152     0.919054221234     0.271006138564    -2.87073    
shOss    O      0.592850403280     0.566078499384     0.989396872383    -2.87073    
shOss    O      0.446233139793     0.033432691363     0.323360335350    -2.87073    
shOss    O      0.980312358714     0.419806393855     0.656426872841    -2.87073    
shOss    O      0.424452523001     0.446140416176     0.490575228897    -2.87073    
shOss    O      0.565936997536     0.973363653609     0.823706403069    -2.87073    
shOss    O      0.031701490328     0.586419162762     0.156769303766    -2.87073    
shOss    O      0.562505225660     0.587700867353     0.345880912785    -2.87073    
shOss    O      0.027821300557     0.440883613980     0.012899883269    -2.87073    
shOss    O      0.417304457254     0.979353213227     0.679624359567    -2.87073    
shOss    O      0.444963370645     0.419052049006     0.846505057405    -2.87073    
shOss    O      0.982191546913     0.568341479923     0.512461050952    -2.87073    
shOss    O      0.591060211661     0.030828289168     0.180422496370    -2.87073    
shOss    O      0.588386717262     0.174192531313     0.253359643697    -2.87073    
shOss    O      0.836207433692     0.416041446116     0.583417085554    -2.87073    
shOss    O      0.589843514158     0.422323037279     0.917345440939    -2.87073    
shOss    O      0.425544833794     0.836173595079     0.750086314459    -2.87073    
shOss    O      0.182627596305     0.592996092723     0.083857266698    -2.87073    
shOss    O      0.419014628882     0.591531189354     0.417787318727    -2.87073    
shOgs    O      0.007530955573     0.931417658105     0.336681365509    -3.33043    
shOgs    O      0.080038940416     0.078052067494     0.667557924686    -3.33043    
shOgs    O      0.085561179305     0.003633841028     0.502706506783    -3.33043    
shOgs    O      0.345121570163     0.590389092195     0.333440937015    -3.33043    
shOgs    O      0.585618956491     0.250848429711     0.168563597382    -3.33043    
shOgs    O      0.763789694956     0.340135845667     0.499975618577    -3.33043    
shOgs    O      0.589805422814     0.344909603739     0.004064594303    -3.33043    
shOgs    O      0.757267346929     0.421842014345     0.670449476557    -3.33043    
shOgs    O      0.345470893024     0.760734725722     0.835206277976    -3.33043    
shOgs    O      0.218347154962     0.131728257723     0.362802815192    -3.33043    
shOgs    O      0.876189351961     0.092761892539     0.696189295674    -3.33043    
shOgs    O      0.088752036447     0.219686844442     0.531407832524    -3.33043    
shOgs    O      0.147417214390     0.075167755383     0.584326871860    -3.33043    
shOgs    O      0.080852929987     0.151678254167     0.751746518788    -3.33043    
shOgs    O      0.082225358600     0.937182580842     0.419587705025    -3.33043    
shOgs    O      0.214720760467     0.907881312735     0.355089149128    -3.33043    
shOgs    O      0.108386652460     0.312227997940     0.689516311587    -3.33043    
shOgs    O      0.312808150838     0.208789974833     0.523765707782    -3.33043    
shOgs    O      0.327434772750     0.642095418539     0.251592179284    -3.33043    
shOgs    O      0.326384759655     0.685632765148     0.916987011658    -3.33043    
shOgs    O      0.691283093279     0.366399313181     0.752652549413    -3.33043    
shOgs    O      0.690177813608     0.322075305878     0.417095126368    -3.33043    
shOgs    O      0.772630688935     0.302221987768     0.012737357933    -3.33043    
shOgs    O      0.539479724178     0.234804166006     0.679612600014    -3.33043    
shOgs    O      0.308093700804     0.540476468553     0.845880175658    -3.33043    
shOgs    O      0.308301141061     0.774322148843     0.323911404132    -3.33043    
shOgs    O      0.538468969626     0.307616039467     0.490122493560    -3.33043    
shOgs    O      0.773418965672     0.471552659920     0.158579611412    -3.33043    
shOgs    O      0.793375446360     0.529219126032     0.033090116876    -3.33043    
shOgs    O      0.746120167658     0.218549717075     0.700481027071    -3.33043    
shOgs    O      0.534421903151     0.750208245836     0.864621336000    -3.33043    
shOgs    O      0.534736725527     0.794011156846     0.304362526119    -3.33043    
shOgs    O      0.746914748266     0.531518550081     0.470496378292    -3.33043    
shOgs    O      0.798586942655     0.267903895602     0.136921001212    -3.33043    
shF      F      0.461230917441     0.907298841837     0.251098491843    -1.56       
shF      F      0.104505158742     0.549387371304     0.585717367894    -1.56       
shF      F      0.459333712025     0.551422198695     0.917594048657    -1.56       
shF      F      0.553365455332     0.100577076179     0.752791975507    -1.56       
shF      F      0.907255173395     0.453596792543     0.085085078236    -1.56       
shF      F      0.553386881993     0.458582605820     0.417992764717    -1.56       


