data_cif

_audit_creation_method             'generated by GULP'

_symmetry_space_group_name_H-M     'P 1'
_symmetry_Int_Tables_number        1
_symmetry_cell_setting             triclinic

_cell_length_a                       11.9412
_cell_length_b                       11.9412
_cell_length_c                       29.4009
_cell_angle_alpha                   90.0000
_cell_angle_beta                    90.0000
_cell_angle_gamma                  120.0000

loop_
_atom_site_label
_atom_site_fract_x
_atom_site_fract_y
_atom_site_fract_z
_atom_site_occupancy
  Si          0.69960      0.37570      0.03389  1.0000
  Si          0.61746      0.32116      0.36722  1.0000
  Si          0.67200      0.29356      0.70056  1.0000
  Si          0.29310      0.61791      0.53389  1.0000
  Si          0.37525      0.67245      0.86722  1.0000
  Si          0.32071      0.70006      0.20056  1.0000
  Si          0.37525      0.70006      0.30136  1.0000
  Si          0.32071      0.61791      0.96802  1.0000
  Si          0.29310      0.67245      0.63469  1.0000
  Si          0.61746      0.29355      0.80136  1.0000
  Si          0.67200      0.37571      0.46803  1.0000
  Si          0.69961      0.32116      0.13469  1.0000
  Si          0.52749      0.41332      0.96855  1.0000
  Si          0.57984      0.11143      0.30188  1.0000
  Si          0.88173      0.46567      0.63521  1.0000
  Si          0.46522      0.58029      0.46855  1.0000
  Si          0.41287      0.88219      0.80188  1.0000
  Si          0.11097      0.52794      0.13521  1.0000
  Si          0.41287      0.52794      0.36670  1.0000
  Si          0.11097      0.58029      0.03337  1.0000
  Si          0.46522      0.88219      0.70003  1.0000
  Si          0.57984      0.46567      0.86670  1.0000
  Si          0.88173      0.41332      0.53337  1.0000
  Si          0.52749      0.11143      0.20003  1.0000
  Si          0.29856      0.39395      0.85241  1.0000
  Si          0.59921      0.90187      0.18574  1.0000
  Si          0.09129      0.69460      0.51908  1.0000
  Si          0.69415      0.59967      0.35241  1.0000
  Si          0.39350      0.09174      0.68574  1.0000
  Si          0.90142      0.29901      0.01908  1.0000
  Si          0.39350      0.29901      0.48284  1.0000
  Si          0.90142      0.59967      0.14950  1.0000
  Si          0.69415      0.09174      0.81617  1.0000
  Si          0.59921      0.69460      0.98284  1.0000
  Si          0.09129      0.39395      0.64950  1.0000
  Si          0.29856      0.90187      0.31617  1.0000
  Si          0.24847      0.33627      0.95326  1.0000
  Si          0.65689      0.90946      0.28660  1.0000
  Si          0.08370      0.74469      0.61993  1.0000
  Si          0.74423      0.65734      0.45326  1.0000
  Si          0.33582      0.08415      0.78660  1.0000
  Si          0.90901      0.24893      0.11993  1.0000
  Si          0.33582      0.24893      0.38198  1.0000
  Si          0.90901      0.65734      0.04865  1.0000
  Si          0.74424      0.08415      0.71532  1.0000
  Si          0.65689      0.74469      0.88198  1.0000
  Si          0.08370      0.33627      0.54865  1.0000
  Si          0.24847      0.90946      0.21532  1.0000
  Si          0.96839      0.11828      0.96820  1.0000
  Si          0.87488      0.84737      0.30154  1.0000
  Si          0.14579      0.02477      0.63487  1.0000
  Si          0.02431      0.87533      0.46820  1.0000
  Si          0.11783      0.14624      0.80154  1.0000
  Si          0.84692      0.96885      0.13487  1.0000
  Si          0.11783      0.96885      0.36704  1.0000
  Si          0.84692      0.87533      0.03371  1.0000
  Si          0.02431      0.14624      0.70038  1.0000
  Si          0.87488      0.02476      0.86704  1.0000
  Si          0.14579      0.11829      0.53371  1.0000
  Si          0.96840      0.84737      0.20038  1.0000
  O          0.92675      0.99680      0.00096  1.0000
  O          0.99635      0.92720      0.33429  1.0000
  O          0.06596      0.06641      0.66762  1.0000
  O          0.06596      0.99681      0.50096  1.0000
  O          0.99635      0.06641      0.83429  1.0000
  O          0.92675      0.92720      0.16762  1.0000
  O          0.33606      0.57666      0.33415  1.0000
  O          0.41650      0.75666      0.66749  1.0000
  O          0.23650      0.65710      0.00082  1.0000
  O          0.65665      0.41695      0.83415  1.0000
  O          0.57621      0.23696      0.16749  1.0000
  O          0.75620      0.33651      0.50082  1.0000
  O          0.57621      0.33651      0.00110  1.0000
  O          0.75620      0.41695      0.66776  1.0000
  O          0.65665      0.23696      0.33443  1.0000
  O          0.41650      0.65710      0.50109  1.0000
  O          0.23651      0.57667      0.16776  1.0000
  O          0.33606      0.75665      0.83443  1.0000
  O          0.12282      0.20944      0.97361  1.0000
  O          0.78373      0.91064      0.30694  1.0000
  O          0.08252      0.87035      0.64028  1.0000
  O          0.86989      0.78418      0.47361  1.0000
  O          0.20898      0.08297      0.80694  1.0000
  O          0.91019      0.12327      0.14028  1.0000
  O          0.20898      0.12327      0.36164  1.0000
  O          0.91018      0.78417      0.02830  1.0000
  O          0.86989      0.08297      0.69497  1.0000
  O          0.78373      0.87034      0.86164  1.0000
  O          0.08252      0.20944      0.52830  1.0000
  O          0.12282      0.91064      0.19497  1.0000
  O          0.92829      0.86068      0.25096  1.0000
  O          0.13248      0.06487      0.58429  1.0000
  O          0.92829      0.06487      0.91762  1.0000
  O          0.06442      0.13294      0.75096  1.0000
  O          0.86023      0.92874      0.08429  1.0000
  O          0.06442      0.92874      0.41762  1.0000
  O          0.89899      0.20074      0.98038  1.0000
  O          0.79242      0.69552      0.31371  1.0000
  O          0.29765      0.09417      0.64705  1.0000
  O          0.09371      0.79288      0.48038  1.0000
  O          0.20029      0.29810      0.81371  1.0000
  O          0.69506      0.89945      0.14705  1.0000
  O          0.20029      0.89945      0.35487  1.0000
  O          0.69506      0.79287      0.02153  1.0000
  O          0.09371      0.29810      0.68820  1.0000
  O          0.79242      0.09417      0.85487  1.0000
  O          0.29765      0.20074      0.52153  1.0000
  O          0.89900      0.69552      0.18820  1.0000
  O          0.31909      0.64228      0.25096  1.0000
  O          0.35088      0.67407      0.58429  1.0000
  O          0.31909      0.67407      0.91762  1.0000
  O          0.67362      0.35133      0.75096  1.0000
  O          0.64182      0.31954      0.08429  1.0000
  O          0.67362      0.31954      0.41762  1.0000
  O          0.37094      0.32588      0.97160  1.0000
  O          0.66728      0.04232      0.30494  1.0000
  O          0.95084      0.62222      0.63827  1.0000
  O          0.62177      0.66774      0.47160  1.0000
  O          0.32543      0.95129      0.80494  1.0000
  O          0.04187      0.37140      0.13827  1.0000
  O          0.32543      0.37140      0.36364  1.0000
  O          0.04187      0.66773      0.03031  1.0000
  O          0.62177      0.95129      0.69698  1.0000
  O          0.66728      0.62222      0.86364  1.0000
  O          0.95084      0.32588      0.53031  1.0000
  O          0.37094      0.04232      0.19698  1.0000
  O          0.76767      0.30008      0.01158  1.0000
  O          0.69308      0.46485      0.34491  1.0000
  O          0.52831      0.22549      0.67824  1.0000
  O          0.22503      0.69353      0.51158  1.0000
  O          0.29963      0.52877      0.84491  1.0000
  O          0.46440      0.76813      0.17824  1.0000
  O          0.29963      0.76813      0.32367  1.0000
  O          0.46439      0.69353      0.99034  1.0000
  O          0.22503      0.52877      0.65700  1.0000
  O          0.69308      0.22549      0.82367  1.0000
  O          0.52831      0.30009      0.49034  1.0000
  O          0.76767      0.46485      0.15700  1.0000
  O          0.78202      0.53210      0.02901  1.0000
  O          0.46106      0.24718      0.36235  1.0000
  O          0.74598      0.21114      0.69568  1.0000
  O          0.21068      0.46151      0.52901  1.0000
  O          0.53165      0.74643      0.86235  1.0000
  O          0.24673      0.78248      0.19568  1.0000
  O          0.53165      0.78248      0.30623  1.0000
  O          0.24673      0.46151      0.97290  1.0000
  O          0.21068      0.74643      0.63957  1.0000
  O          0.46106      0.21114      0.80624  1.0000
  O          0.74598      0.53211      0.47290  1.0000
  O          0.78203      0.24718      0.13957  1.0000
  O          0.22830      0.31869      0.89884  1.0000
  O          0.67447      0.90687      0.23218  1.0000
  O          0.08629      0.76486      0.56551  1.0000
  O          0.76441      0.67493      0.39884  1.0000
  O          0.31824      0.08675      0.73218  1.0000
  O          0.90641      0.22875      0.06551  1.0000
  O          0.31824      0.22875      0.43640  1.0000
  O          0.90641      0.67492      0.10307  1.0000
  O          0.76441      0.08675      0.76974  1.0000
  O          0.67447      0.76486      0.93640  1.0000
  O          0.08629      0.31869      0.60307  1.0000
  O          0.22830      0.90687      0.26974  1.0000
  O          0.58525      0.55494      0.99169  1.0000
  O          0.43822      0.02758      0.32502  1.0000
  O          0.96558      0.40791      0.65836  1.0000
  O          0.40745      0.43868      0.49169  1.0000
  O          0.55449      0.96603      0.82502  1.0000
  O          0.02713      0.58571      0.15836  1.0000
  O          0.55449      0.58571      0.34356  1.0000
  O          0.02712      0.43867      0.01022  1.0000
  O          0.40745      0.96604      0.67689  1.0000
  O          0.43822      0.40790      0.84356  1.0000
  O          0.96558      0.55494      0.51022  1.0000
  O          0.58526      0.02758      0.17689  1.0000
  O          0.58043      0.16497      0.25096  1.0000
  O          0.82820      0.41273      0.58429  1.0000
  O          0.58043      0.41273      0.91762  1.0000
  O          0.41228      0.82865      0.75096  1.0000
  O          0.16451      0.58088      0.08429  1.0000
  O          0.41228      0.58089      0.41762  1.0000
  F           0.44920      0.90250      0.25096  1.0000
  F           0.09066      0.54396      0.58429  1.0000
  F           0.44920      0.54396      0.91762  1.0000
  F           0.54351      0.09111      0.75096  1.0000
  F           0.90205      0.44965      0.08429  1.0000
  F           0.54351      0.44966      0.41762  1.0000
