data_cif

_audit_creation_method             'generated by GULP'

_symmetry_space_group_name_H-M     'P 1'
_symmetry_Int_Tables_number        1
_symmetry_cell_setting             triclinic

_cell_length_a                       14.7100
_cell_length_b                       14.7100
_cell_length_c                       16.2452
_cell_angle_alpha                   90.0001
_cell_angle_beta                    89.9999
_cell_angle_gamma                  119.9999

loop_
_atom_site_label
_atom_site_fract_x
_atom_site_fract_y
_atom_site_fract_z
_atom_site_occupancy
  Si          0.15607      0.00000      0.11111  1.0000
  Si          0.15607      1.00000      0.44444  1.0000
  Si          0.15607      1.00000      0.77778  1.0000
  Si          0.15607      0.33333      0.11111  1.0000
  Si          0.15607      0.33333      0.44444  1.0000
  Si          0.15607      0.33333      0.77778  1.0000
  Si          0.15607      0.66667      0.11111  1.0000
  Si          0.15607      0.66666      0.44444  1.0000
  Si          0.15607      0.66667      0.77778  1.0000
  Si          0.48940      1.00000      0.11111  1.0000
  Si          0.48940      1.00000      0.44444  1.0000
  Si          0.48940      1.00000      0.77778  1.0000
  Si          0.48940      0.33333      0.11111  1.0000
  Si          0.48940      0.33333      0.44444  1.0000
  Si          0.48940      0.33333      0.77778  1.0000
  Si          0.48940      0.66667      0.11111  1.0000
  Si          0.48940      0.66667      0.44444  1.0000
  Si          0.48940      0.66667      0.77778  1.0000
  Si          0.82273      1.00000      0.11111  1.0000
  Si          0.82273      1.00000      0.44444  1.0000
  Si          0.82273      1.00000      0.77778  1.0000
  Si          0.82273      0.33333      0.11111  1.0000
  Si          0.82273      0.33333      0.44444  1.0000
  Si          0.82273      0.33333      0.77778  1.0000
  Si          0.82274      0.66667      0.11111  1.0000
  Si          0.82273      0.66667      0.44444  1.0000
  Si          0.82273      0.66667      0.77778  1.0000
  Si          0.99950      0.15657      0.22222  1.0000
  Si          0.99950      0.15657      0.55555  1.0000
  Si          0.99950      0.15657      0.88889  1.0000
  Si          0.99950      0.48990      0.22222  1.0000
  Si          0.99949      0.48990      0.55555  1.0000
  Si          0.99950      0.48990      0.88889  1.0000
  Si          0.99950      0.82324      0.22222  1.0000
  Si          0.99950      0.82324      0.55555  1.0000
  Si          0.99950      0.82324      0.88889  1.0000
  Si          0.33283      0.15657      0.22222  1.0000
  Si          0.33283      0.15657      0.55555  1.0000
  Si          0.33283      0.15657      0.88889  1.0000
  Si          0.33283      0.48990      0.22222  1.0000
  Si          0.33283      0.48990      0.55555  1.0000
  Si          0.33283      0.48990      0.88889  1.0000
  Si          0.33283      0.82324      0.22222  1.0000
  Si          0.33283      0.82324      0.55555  1.0000
  Si          0.33283      0.82324      0.88889  1.0000
  Si          0.66616      0.15657      0.22222  1.0000
  Si          0.66616      0.15657      0.55555  1.0000
  Si          0.66616      0.15657      0.88889  1.0000
  Si          0.66616      0.48990      0.22222  1.0000
  Si          0.66616      0.48990      0.55555  1.0000
  Si          0.66616      0.48990      0.88889  1.0000
  Si          0.66616      0.82324      0.22222  1.0000
  Si          0.66616      0.82324      0.55555  1.0000
  Si          0.66616      0.82324      0.88889  1.0000
  Si          0.17626      0.17676      0.33333  1.0000
  Si          0.17626      0.17676      0.66667  1.0000
  Si          0.17626      0.17676      1.00000  1.0000
  Si          0.17626      0.51009      0.33333  1.0000
  Si          0.17626      0.51009      0.66667  1.0000
  Si          0.17626      0.51009      1.00000  1.0000
  Si          0.17626      0.84343      0.33333  1.0000
  Si          0.17626      0.84343      0.66667  1.0000
  Si          0.17626      0.84343      1.00000  1.0000
  Si          0.50959      0.17676      0.33333  1.0000
  Si          0.50959      0.17676      0.66667  1.0000
  Si          0.50959      0.17676      1.00000  1.0000
  Si          0.50959      0.51009      0.33333  1.0000
  Si          0.50959      0.51009      0.66667  1.0000
  Si          0.50959      0.51009      1.00000  1.0000
  Si          0.50959      0.84343      0.33333  1.0000
  Si          0.50959      0.84343      0.66667  1.0000
  Si          0.50959      0.84343      1.00000  1.0000
  Si          0.84292      0.17676      0.33333  1.0000
  Si          0.84292      0.17676      0.66667  1.0000
  Si          0.84292      0.17676      1.00000  1.0000
  Si          0.84292      0.51009      0.33333  1.0000
  Si          0.84292      0.51009      0.66667  1.0000
  Si          0.84292      0.51009      1.00000  1.0000
  Si          0.84292      0.84343      0.33333  1.0000
  Si          0.84292      0.84343      0.66667  1.0000
  Si          0.84292      0.84343      1.00000  1.0000
  O2          0.13700      0.08957      0.07201  1.0000
  O2          0.13699      0.08957      0.40534  1.0000
  O2          0.13699      0.08957      0.73867  1.0000
  O2          0.13699      0.42290      0.07201  1.0000
  O2          0.13699      0.42290      0.40534  1.0000
  O2          0.13699      0.42290      0.73867  1.0000
  O2          0.13699      0.75624      0.07201  1.0000
  O2          0.13699      0.75623      0.40534  1.0000
  O2          0.13699      0.75623      0.73867  1.0000
  O2          0.47033      0.08957      0.07201  1.0000
  O2          0.47033      0.08957      0.40534  1.0000
  O2          0.47033      0.08957      0.73867  1.0000
  O2          0.47033      0.42290      0.07201  1.0000
  O2          0.47033      0.42290      0.40534  1.0000
  O2          0.47033      0.42290      0.73867  1.0000
  O2          0.47033      0.75624      0.07201  1.0000
  O2          0.47033      0.75623      0.40534  1.0000
  O2          0.47033      0.75624      0.73867  1.0000
  O2          0.80366      0.08957      0.07201  1.0000
  O2          0.80366      0.08957      0.40534  1.0000
  O2          0.80366      0.08957      0.73867  1.0000
  O2          0.80366      0.42290      0.07201  1.0000
  O2          0.80366      0.42290      0.40534  1.0000
  O2          0.80366      0.42290      0.73867  1.0000
  O2          0.80366      0.75624      0.07201  1.0000
  O2          0.80366      0.75623      0.40534  1.0000
  O2          0.80366      0.75624      0.73867  1.0000
  O2          0.24326      0.04793      0.18312  1.0000
  O2          0.24326      0.04793      0.51645  1.0000
  O2          0.24326      0.04793      0.84978  1.0000
  O2          0.24326      0.38126      0.18312  1.0000
  O2          0.24326      0.38126      0.51645  1.0000
  O2          0.24326      0.38126      0.84978  1.0000
  O2          0.24326      0.71459      0.18312  1.0000
  O2          0.24326      0.71459      0.51645  1.0000
  O2          0.24326      0.71459      0.84978  1.0000
  O2          0.57659      0.04793      0.18312  1.0000
  O2          0.57659      0.04793      0.51645  1.0000
  O2          0.57659      0.04793      0.84978  1.0000
  O2          0.57659      0.38126      0.18312  1.0000
  O2          0.57659      0.38126      0.51645  1.0000
  O2          0.57659      0.38126      0.84978  1.0000
  O2          0.57659      0.71459      0.18312  1.0000
  O2          0.57659      0.71459      0.51645  1.0000
  O2          0.57659      0.71459      0.84978  1.0000
  O2          0.90993      0.04793      0.18312  1.0000
  O2          0.90993      0.04793      0.51645  1.0000
  O2          0.90993      0.04793      0.84978  1.0000
  O2          0.90993      0.38126      0.18312  1.0000
  O2          0.90993      0.38126      0.51645  1.0000
  O2          0.90993      0.38126      0.84978  1.0000
  O2          0.90993      0.71459      0.18312  1.0000
  O2          0.90993      0.71459      0.51645  1.0000
  O2          0.90993      0.71459      0.84978  1.0000
  O2          0.28490      0.19583      0.29423  1.0000
  O2          0.28490      0.19583      0.62756  1.0000
  O2          0.28490      0.19584      0.96089  1.0000
  O2          0.28490      0.52917      0.29423  1.0000
  O2          0.28490      0.52917      0.62756  1.0000
  O2          0.28490      0.52917      0.96089  1.0000
  O2          0.28490      0.86250      0.29423  1.0000
  O2          0.28490      0.86250      0.62756  1.0000
  O2          0.28490      0.86250      0.96089  1.0000
  O2          0.61824      0.19583      0.29423  1.0000
  O2          0.61823      0.19583      0.62756  1.0000
  O2          0.61823      0.19583      0.96089  1.0000
  O2          0.61823      0.52917      0.29423  1.0000
  O2          0.61823      0.52917      0.62756  1.0000
  O2          0.61823      0.52917      0.96089  1.0000
  O2          0.61823      0.86250      0.29423  1.0000
  O2          0.61823      0.86250      0.62756  1.0000
  O2          0.61823      0.86250      0.96089  1.0000
  O2          0.95157      0.19583      0.29423  1.0000
  O2          0.95157      0.19583      0.62756  1.0000
  O2          0.95157      0.19583      0.96089  1.0000
  O2          0.95157      0.52917      0.29423  1.0000
  O2          0.95157      0.52917      0.62756  1.0000
  O2          0.95157      0.52917      0.96089  1.0000
  O2          0.95157      0.86250      0.29423  1.0000
  O2          0.95157      0.86250      0.62756  1.0000
  O2          0.95157      0.86250      0.96089  1.0000
  O2          0.04742      0.24376      0.15021  1.0000
  O2          0.04742      0.24376      0.48355  1.0000
  O2          0.04742      0.24376      0.81688  1.0000
  O2          0.04742      0.57710      0.15022  1.0000
  O2          0.04742      0.57710      0.48355  1.0000
  O2          0.04742      0.57710      0.81688  1.0000
  O2          0.04743      0.91043      0.15021  1.0000
  O2          0.04742      0.91043      0.48355  1.0000
  O2          0.04742      0.91043      0.81688  1.0000
  O2          0.38076      0.24376      0.15022  1.0000
  O2          0.38076      0.24376      0.48355  1.0000
  O2          0.38076      0.24376      0.81688  1.0000
  O2          0.38076      0.57710      0.15021  1.0000
  O2          0.38076      0.57710      0.48355  1.0000
  O2          0.38076      0.57710      0.81688  1.0000
  O2          0.38076      0.91043      0.15022  1.0000
  O2          0.38076      0.91043      0.48355  1.0000
  O2          0.38076      0.91043      0.81688  1.0000
  O2          0.71409      0.24376      0.15022  1.0000
  O2          0.71409      0.24376      0.48355  1.0000
  O2          0.71409      0.24376      0.81688  1.0000
  O2          0.71409      0.57710      0.15022  1.0000
  O2          0.71409      0.57710      0.48355  1.0000
  O2          0.71409      0.57710      0.81688  1.0000
  O2          0.71409      0.91043      0.15021  1.0000
  O2          0.71409      0.91043      0.48355  1.0000
  O2          0.71409      0.91043      0.81688  1.0000
  O2          0.19533      0.28540      0.03910  1.0000
  O2          0.19533      0.28540      0.37244  1.0000
  O2          0.19533      0.28540      0.70577  1.0000
  O2          0.19533      0.61874      0.03910  1.0000
  O2          0.19533      0.61874      0.37244  1.0000
  O2          0.19533      0.61874      0.70577  1.0000
  O2          0.19533      0.95207      0.03910  1.0000
  O2          0.19533      0.95207      0.37244  1.0000
  O2          0.19533      0.95207      0.70577  1.0000
  O2          0.52866      0.28540      0.03910  1.0000
  O2          0.52867      0.28540      0.37244  1.0000
  O2          0.52867      0.28540      0.70577  1.0000
  O2          0.52866      0.61874      0.03910  1.0000
  O2          0.52866      0.61874      0.37244  1.0000
  O2          0.52866      0.61874      0.70577  1.0000
  O2          0.52866      0.95207      0.03910  1.0000
  O2          0.52866      0.95207      0.37244  1.0000
  O2          0.52866      0.95207      0.70577  1.0000
  O2          0.86200      0.28540      0.03910  1.0000
  O2          0.86200      0.28540      0.37244  1.0000
  O2          0.86200      0.28540      0.70577  1.0000
  O2          0.86200      0.61874      0.03910  1.0000
  O2          0.86200      0.61874      0.37244  1.0000
  O2          0.86200      0.61874      0.70577  1.0000
  O2          0.86200      0.95207      0.03910  1.0000
  O2          0.86200      0.95207      0.37244  1.0000
  O2          0.86200      0.95207      0.70577  1.0000
  O2          0.08907      0.13750      0.26133  1.0000
  O2          0.08906      0.13750      0.59466  1.0000
  O2          0.08906      0.13750      0.92799  1.0000
  O2          0.08907      0.47083      0.26133  1.0000
  O2          0.08906      0.47083      0.59466  1.0000
  O2          0.08906      0.47083      0.92799  1.0000
  O2          0.08907      0.80416      0.26133  1.0000
  O2          0.08906      0.80416      0.59466  1.0000
  O2          0.08907      0.80416      0.92799  1.0000
  O2          0.42240      0.13750      0.26133  1.0000
  O2          0.42240      0.13750      0.59466  1.0000
  O2          0.42240      0.13750      0.92799  1.0000
  O2          0.42240      0.47083      0.26133  1.0000
  O2          0.42240      0.47083      0.59466  1.0000
  O2          0.42240      0.47083      0.92799  1.0000
  O2          0.42240      0.80416      0.26133  1.0000
  O2          0.42240      0.80416      0.59466  1.0000
  O2          0.42240      0.80416      0.92799  1.0000
  O2          0.75573      0.13750      0.26132  1.0000
  O2          0.75573      0.13750      0.59466  1.0000
  O2          0.75573      0.13750      0.92799  1.0000
  O2          0.75573      0.47083      0.26133  1.0000
  O2          0.75573      0.47083      0.59466  1.0000
  O2          0.75573      0.47083      0.92799  1.0000
  O2          0.75573      0.80416      0.26133  1.0000
  O2          0.75573      0.80416      0.59466  1.0000
  O2          0.75573      0.80416      0.92799  1.0000
