data_cif

_audit_creation_method             'generated by GULP'

_symmetry_space_group_name_H-M     'P 1'
_symmetry_Int_Tables_number        1
_symmetry_cell_setting             triclinic

_cell_length_a                       11.9113
_cell_length_b                       11.9733
_cell_length_c                       29.3538
_cell_angle_alpha                   90.0487
_cell_angle_beta                    90.3592
_cell_angle_gamma                  120.0424

loop_
_atom_site_label
_atom_site_fract_x
_atom_site_fract_y
_atom_site_fract_z
_atom_site_occupancy
  Si          0.69960      0.37570      0.03389  1.0000
  Si          0.59992      0.31084      0.36454  1.0000
  Si          0.66191      0.28904      0.69942  1.0000
  Si          0.27628      0.60926      0.53036  1.0000
  Si          0.36415      0.66400      0.86341  1.0000
  Si          0.30108      0.69263      0.19644  1.0000
  Si          0.35523      0.68813      0.29724  1.0000
  Si          0.30734      0.61279      0.96374  1.0000
  Si          0.28240      0.66709      0.63125  1.0000
  Si          0.60767      0.28714      0.80054  1.0000
  Si          0.65536      0.36794      0.46554  1.0000
  Si          0.67160      0.31021      0.13001  1.0000
  Si          0.52450      0.41069      0.97028  1.0000
  Si          0.56184      0.10027      0.29956  1.0000
  Si          0.86995      0.46060      0.63374  1.0000
  Si          0.44620      0.57067      0.46441  1.0000
  Si          0.40254      0.87400      0.79838  1.0000
  Si          0.09047      0.52152      0.12984  1.0000
  Si          0.39316      0.51565      0.36236  1.0000
  Si          0.09162      0.57418      0.02646  1.0000
  Si          0.45587      0.87818      0.69636  1.0000
  Si          0.57172      0.45941      0.86680  1.0000
  Si          0.86579      0.40634      0.53167  1.0000
  Si          0.50831      0.10234      0.19751  1.0000
  Si          0.28938      0.38652      0.85070  1.0000
  Si          0.57995      0.89376      0.18193  1.0000
  Si          0.07427      0.68647      0.51652  1.0000
  Si          0.67495      0.58743      0.34885  1.0000
  Si          0.38352      0.08682      0.68306  1.0000
  Si          0.87873      0.28904      0.01189  1.0000
  Si          0.37549      0.29053      0.47931  1.0000
  Si          0.87529      0.59237      0.14315  1.0000
  Si          0.68431      0.08463      0.81392  1.0000
  Si          0.58529      0.69111      0.97997  1.0000
  Si          0.08118      0.38932      0.64704  1.0000
  Si          0.27948      0.89010      0.31309  1.0000
  Si          0.24231      0.33388      0.95182  1.0000
  Si          0.63764      0.89803      0.28305  1.0000
  Si          0.07156      0.73908      0.61755  1.0000
  Si          0.72627      0.64823      0.44975  1.0000
  Si          0.32593      0.07633      0.78397  1.0000
  Si          0.88602      0.24002      0.11442  1.0000
  Si          0.31742      0.23813      0.37823  1.0000
  Si          0.88621      0.65133      0.04082  1.0000
  Si          0.73490      0.08051      0.71292  1.0000
  Si          0.64618      0.73809      0.87933  1.0000
  Si          0.06800      0.32867      0.54601  1.0000
  Si          0.22859      0.90010      0.21215  1.0000
  Si          0.96119      0.11572      0.96466  1.0000
  Si          0.85506      0.83427      0.29825  1.0000
  Si          0.13442      0.01917      0.63201  1.0000
  Si          0.00682      0.86677      0.46531  1.0000
  Si          0.10849      0.13866      0.79884  1.0000
  Si          0.82860      0.96294      0.13147  1.0000
  Si          0.09978      0.95760      0.36398  1.0000
  Si          0.83351      0.87447      0.03011  1.0000
  Si          0.01539      0.14242      0.69751  1.0000
  Si          0.86592      0.01656      0.86411  1.0000
  Si          0.12900      0.11025      0.53077  1.0000
  Si          0.94827      0.83960      0.19664  1.0000
  O2          0.91622      0.99870      0.99948  1.0000
  O2          0.97706      0.91435      0.33119  1.0000
  O2          0.05486      0.06204      0.66421  1.0000
  O2          0.04806      0.98870      0.49783  1.0000
  O2          0.98492      0.05732      0.83034  1.0000
  O2          0.90852      0.92496      0.16602  1.0000
  O2          0.31613      0.56410      0.32937  1.0000
  O2          0.40794      0.75333      0.66334  1.0000
  O2          0.21899      0.65056      0.99540  1.0000
  O2          0.64716      0.40839      0.83438  1.0000
  O2          0.55600      0.22841      0.16580  1.0000
  O2          0.73883      0.32933      0.49910  1.0000
  O3          0.56741      0.33242      0.00192  1.0000
  O2          0.74620      0.41294      0.66694  1.0000
  O2          0.63909      0.22523      0.33243  1.0000
  O2          0.39791      0.64779      0.49673  1.0000
  O2          0.21519      0.57024      0.16289  1.0000
  O2          0.32504      0.74716      0.82983  1.0000
  O2          0.11508      0.20732      0.97196  1.0000
  O2          0.76428      0.89798      0.30347  1.0000
  O2          0.07170      0.86520      0.63782  1.0000
  O2          0.85185      0.77591      0.47006  1.0000
  O2          0.19857      0.07417      0.80424  1.0000
  O2          0.88915      0.11720      0.13585  1.0000
  O2          0.19068      0.11143      0.35785  1.0000
  O2          0.89694      0.78416      0.02292  1.0000
  O2          0.86069      0.08028      0.69225  1.0000
  O2          0.77404      0.86254      0.85903  1.0000
  O2          0.06502      0.20085      0.52587  1.0000
  O2          0.10275      0.90160      0.19159  1.0000
  O2          0.90790      0.84642      0.24770  1.0000
  O2          0.11903      0.05675      0.58112  1.0000
  O2          0.92474      0.05737      0.91436  1.0000
  O2          0.05735      0.12860      0.74781  1.0000
  O2          0.84688      0.92231      0.08177  1.0000
  O2          0.04796      0.91963      0.41471  1.0000
  O2          0.88764      0.19582      0.97397  1.0000
  O2          0.77274      0.68277      0.31009  1.0000
  O2          0.28701      0.08953      0.64416  1.0000
  O2          0.07573      0.78424      0.47785  1.0000
  O2          0.19111      0.28934      0.81194  1.0000
  O2          0.67600      0.89282      0.14308  1.0000
  O2          0.18209      0.88785      0.35197  1.0000
  O2          0.68111      0.79413      0.01825  1.0000
  O2          0.08541      0.29418      0.68552  1.0000
  O2          0.78266      0.08586      0.85277  1.0000
  O2          0.28058      0.19324      0.51806  1.0000
  O2          0.87688      0.68953      0.18189  1.0000
  O2          0.29942      0.63206      0.24630  1.0000
  O2          0.33749      0.66701      0.58050  1.0000
  O2          0.30452      0.66732      0.91310  1.0000
  O2          0.66337      0.34560      0.75012  1.0000
  O3          0.61125      0.30502      0.08054  1.0000
  O2          0.65726      0.31135      0.41513  1.0000
  O2          0.36523      0.32629      0.97076  1.0000
  O2          0.64902      0.03074      0.30176  1.0000
  O2          0.93931      0.61695      0.63623  1.0000
  O2          0.60318      0.65843      0.46739  1.0000
  O2          0.31529      0.94330      0.80162  1.0000
  O2          0.01857      0.36573      0.13150  1.0000
  O2          0.30601      0.35927      0.35917  1.0000
  O2          0.02015      0.65898      0.02444  1.0000
  O2          0.61286      0.94825      0.69355  1.0000
  O2          0.65722      0.61546      0.86205  1.0000
  O2          0.93417      0.31843      0.52805  1.0000
  O2          0.35123      0.03229      0.19397  1.0000
  O3          0.74473      0.28705      0.00374  1.0000
  O2          0.67475      0.45319      0.34152  1.0000
  O2          0.51820      0.22120      0.67628  1.0000
  O2          0.20748      0.68452      0.50818  1.0000
  O2          0.28946      0.51997      0.84125  1.0000
  O2          0.44402      0.76087      0.17357  1.0000
  O2          0.27943      0.75579      0.31958  1.0000
  O2          0.45053      0.69173      0.98700  1.0000
  O2          0.21569      0.52427      0.65378  1.0000
  O2          0.68322      0.21774      0.82202  1.0000
  O2          0.51095      0.29246      0.48710  1.0000
  O2          0.74287      0.45719      0.15064  1.0000
  O3          0.75943      0.53117      0.01959  1.0000
  O2          0.44297      0.23581      0.35908  1.0000
  O2          0.73734      0.20825      0.69404  1.0000
  O2          0.19431      0.45293      0.52565  1.0000
  O2          0.52128      0.73996      0.85857  1.0000
  O2          0.22410      0.77224      0.19201  1.0000
  O2          0.51195      0.77141      0.30234  1.0000
  O2          0.23503      0.45747      0.97038  1.0000
  O2          0.19947      0.74038      0.63652  1.0000
  O2          0.45090      0.20304      0.80433  1.0000
  O2          0.72830      0.52403      0.46990  1.0000
  O2          0.76215      0.24388      0.13381  1.0000
  O2          0.21943      0.31382      0.89731  1.0000
  O2          0.65465      0.89623      0.22851  1.0000
  O2          0.07155      0.75773      0.56301  1.0000
  O2          0.74624      0.66406      0.39523  1.0000
  O2          0.30772      0.08012      0.72944  1.0000
  O2          0.88314      0.22305      0.05996  1.0000
  O2          0.29983      0.21956      0.43270  1.0000
  O2          0.87943      0.66242      0.09593  1.0000
  O2          0.75508      0.08120      0.76741  1.0000
  O2          0.66280      0.76052      0.93382  1.0000
  O2          0.07360      0.31313      0.60046  1.0000
  O2          0.20908      0.89696      0.26664  1.0000
  O2          0.57319      0.55437      0.99097  1.0000
  O2          0.42026      0.01445      0.32233  1.0000
  O2          0.95617      0.40438      0.65625  1.0000
  O2          0.38940      0.42994      0.48764  1.0000
  O2          0.54445      0.95860      0.82191  1.0000
  O2          0.99880      0.57303      0.14992  1.0000
  O2          0.53495      0.57347      0.33934  1.0000
  O2          0.00327      0.43172      0.00512  1.0000
  O2          0.39741      0.96168      0.67328  1.0000
  O2          0.42938      0.39977      0.84327  1.0000
  O2          0.94743      0.54706      0.50802  1.0000
  O2          0.56748      0.02042      0.17391  1.0000
  O2          0.56100      0.15402      0.24878  1.0000
  O2          0.81404      0.40644      0.58279  1.0000
  O2          0.57467      0.41316      0.91822  1.0000
  O2          0.40264      0.82309      0.74699  1.0000
  O2          0.13722      0.57101      0.07856  1.0000
  O2          0.39228      0.56926      0.41319  1.0000
  F           0.42836      0.89070      0.24661  1.0000
  F           0.07715      0.53734      0.58097  1.0000
  F           0.43626      0.54437      0.91503  1.0000
  F           0.53371      0.08522      0.74777  1.0000
  F           0.84913      0.43223      0.07116  1.0000
  F           0.52513      0.43957      0.41329  1.0000
